<?xml version="1.0" ?>
	<routes>
		<vehicle id="300" depart="00.00" color="1,0,0" speedFactor="100">
			<route edges="-641"/>
		</vehicle>
		<vehicle id="330" depart="00.00" color="1,0,0" speedFactor="100">
			<route edges="-157"/>
		</vehicle>
		<vehicle id="223" depart="00.00" color="1,0,0" speedFactor="100">
			<route edges="358 374"/>
		</vehicle>
		<vehicle id="5" depart="00.00" color="1,0,0" speedFactor="100">
			<route edges="17"/>
		</vehicle>
		<vehicle id="273" depart="00.00" color="1,0,0" speedFactor="100">
			<route edges="-669 -649 -250"/>
		</vehicle>
		<vehicle id="248" depart="00.00" color="1,0,0" speedFactor="100">
			<route edges="-18 -17 15"/>
		</vehicle>
		<vehicle id="337" depart="00.00" color="1,0,0" speedFactor="100">
			<route edges="63 64 368"/>
		</vehicle>
		<vehicle id="50" depart="00.00" color="1,0,0" speedFactor="100">
			<route edges="60 61 62 63 64 368 455 484 -83 -82 81 -136 -405 404"/>
		</vehicle>
		<vehicle id="451" depart="00.00" color="1,0,0" speedFactor="100">
			<route edges="-445 444 448 -128 -123 127 406 -24 25"/>
		</vehicle>
		<vehicle id="101" depart="00.00" color="1,0,0" speedFactor="100">
			<route edges="489 -484 -455 -368 -64 -63 -62 -61 -60"/>
		</vehicle>
		<vehicle id="76" depart="00.00" color="1,0,0" speedFactor="100">
			<route edges="411 493"/>
		</vehicle>
		<vehicle id="171" depart="00.00" color="1,0,0" speedFactor="100">
			<route edges="511 -246 -183 182 -508 -526"/>
		</vehicle>
		<vehicle id="569" depart="00.00" color="1,0,0" speedFactor="100">
			<route edges="17 18 258 -505 503 524 -292"/>
		</vehicle>
		<vehicle id="341" depart="00.00" color="1,0,0" speedFactor="100">
			<route edges="401"/>
		</vehicle>
		<vehicle id="13" depart="00.00" color="1,0,0" speedFactor="100">
			<route edges="-80 -277"/>
		</vehicle>
		<vehicle id="251" depart="00.00" color="1,0,0" speedFactor="100">
			<route edges="282 -370 368"/>
		</vehicle>
		<vehicle id="345" depart="00.00" color="1,0,0" speedFactor="100">
			<route edges="39 117 -322 -430 652"/>
		</vehicle>
		<vehicle id="210" depart="00.00" color="1,0,0" speedFactor="100">
			<route edges="609 -537 -536"/>
		</vehicle>
		<vehicle id="77" depart="00.00" color="1,0,0" speedFactor="100">
			<route edges="493 -471 -436 -300"/>
		</vehicle>
		<vehicle id="669" depart="00.00" color="1,0,0" speedFactor="100">
			<route edges="192 -302 303"/>
		</vehicle>
		<vehicle id="619" depart="00.00" color="1,0,0" speedFactor="100">
			<route edges="-274 273 372 -139"/>
		</vehicle>
		<vehicle id="859" depart="00.00" color="1,0,0" speedFactor="100">
			<route edges="138 563 -522"/>
		</vehicle>
		<vehicle id="979" depart="00.00" color="1,0,0" speedFactor="100">
			<route edges="-117 118 144"/>
		</vehicle>
		<vehicle id="131" depart="00.00" color="1,0,0" speedFactor="100">
			<route edges="-414"/>
		</vehicle>
		<vehicle id="798" depart="00.00" color="1,0,0" speedFactor="100">
			<route edges="-311 314"/>
		</vehicle>
		<vehicle id="205" depart="00.00" color="1,0,0" speedFactor="100">
			<route edges="-121 122 -52"/>
		</vehicle>
		<vehicle id="391" depart="00.00" color="1,0,0" speedFactor="100">
			<route edges="261 531 -140"/>
		</vehicle>
		<vehicle id="785" depart="00.00" color="1,0,0" speedFactor="100">
			<route edges="319 -31 29 197 198 -483"/>
		</vehicle>
		<vehicle id="846" depart="00.00" color="1,0,0" speedFactor="100">
			<route edges="35 -311 312"/>
		</vehicle>
		<vehicle id="860" depart="00.00" color="1,0,0" speedFactor="100">
			<route edges="-139 142 -259 -258 -18"/>
		</vehicle>
		<vehicle id="682" depart="00.00" color="1,0,0" speedFactor="100">
			<route edges="-285 -284 -247 -183 181 -543"/>
		</vehicle>
		<vehicle id="200" depart="00.00" color="1,0,0" speedFactor="100">
			<route edges="71 256 498 155"/>
		</vehicle>
		<vehicle id="622" depart="00.00" color="1,0,0" speedFactor="100">
			<route edges="372 -139 138 563 -522 -451 450 -138 139 -372"/>
		</vehicle>
		<vehicle id="810" depart="00.00" color="1,0,0" speedFactor="100">
			<route edges="-558 -514 -229 -173"/>
		</vehicle>
		<vehicle id="959" depart="00.00" color="1,0,0" speedFactor="100">
			<route edges="-527 529 -456 -368 370 -282"/>
		</vehicle>
		<vehicle id="156" depart="00.00" color="1,0,0" speedFactor="100">
			<route edges="202 -251 250 649 669"/>
		</vehicle>
		<vehicle id="150" depart="00.00" color="1,0,0" speedFactor="100">
			<route edges="-162 163 255 -217"/>
		</vehicle>
		<vehicle id="47" depart="00.00" color="1,0,0" speedFactor="100">
			<route edges="136 -81 82 83 -489 -488 487 -606 -605 -604"/>
		</vehicle>
		<vehicle id="820" depart="00.00" color="1,0,0" speedFactor="100">
			<route edges="-622 -530 198 -483"/>
		</vehicle>
		<vehicle id="102" depart="00.00" color="1,0,0" speedFactor="100">
			<route edges="-569 -56 51 -304 302 -192 189"/>
		</vehicle>
		<vehicle id="112" depart="00.00" color="1,0,0" speedFactor="100">
			<route edges="130 -93 -89 91 -297 -156 155 157 655 498"/>
		</vehicle>
		<vehicle id="56" depart="00.00" color="1,0,0" speedFactor="100">
			<route edges="156 297 -91 89 92 -427 428 -125"/>
		</vehicle>
		<vehicle id="670" depart="00.00" color="1,0,0" speedFactor="100">
			<route edges="-409 408 -591 -63 -62 -61"/>
		</vehicle>
		<vehicle id="583" depart="00.00" color="1,0,0" speedFactor="100">
			<route edges="-686 -381 -392 -236 239 240 241"/>
		</vehicle>
		<vehicle id="734" depart="00.00" color="1,0,0" speedFactor="100">
			<route edges="-179 180 -412 414"/>
		</vehicle>
		<vehicle id="229" depart="00.00" color="1,0,0" speedFactor="100">
			<route edges="-546 -252 253 -283 -247"/>
		</vehicle>
		<vehicle id="44" depart="00.00" color="1,0,0" speedFactor="100">
			<route edges="-483 -379 377 378 421 608"/>
		</vehicle>
		<vehicle id="852" depart="00.00" color="1,0,0" speedFactor="100">
			<route edges="425 684 6 7 8 9 10 11 -3"/>
		</vehicle>
		<vehicle id="610" depart="00.00" color="1,0,0" speedFactor="100">
			<route edges="33 450 -138 139 -272 275"/>
		</vehicle>
		<vehicle id="14" depart="00.00" color="1,0,0" speedFactor="100">
			<route edges="80 630 -205"/>
		</vehicle>
		<vehicle id="962" depart="00.00" color="1,0,0" speedFactor="100">
			<route edges="638 -400 -144 -118"/>
		</vehicle>
		<vehicle id="217" depart="00.00" color="1,0,0" speedFactor="100">
			<route edges="-6 -684 -685 177 178 -185 184 -169"/>
		</vehicle>
		<vehicle id="89" depart="00.00" color="1,0,0" speedFactor="100">
			<route edges="-373 372 -139 138 -450 -33 32 -220 -215 217"/>
		</vehicle>
		<vehicle id="506" depart="00.00" color="1,0,0" speedFactor="100">
			<route edges="-567 -389 -388 -387 -386 -385 -384 390 -3 -310 -46 48 -98 97"/>
		</vehicle>
		<vehicle id="576" depart="00.00" color="1,0,0" speedFactor="100">
			<route edges="-57 58"/>
		</vehicle>
		<vehicle id="936" depart="00.00" color="1,0,0" speedFactor="100">
			<route edges="-390 384 385 386 387 388 389 567"/>
		</vehicle>
		<vehicle id="973" depart="00.00" color="1,0,0" speedFactor="100">
			<route edges="-401 -208 -37 36 -42 41 5 425 -685 177 178 -195 -194 -193 197 198"/>
		</vehicle>
		<vehicle id="54" depart="00.00" color="1,0,0" speedFactor="100">
			<route edges="148 180 -412 414 -367 -120 122 -52 51 402"/>
		</vehicle>
		<vehicle id="614" depart="00.00" color="1,0,0" speedFactor="100">
			<route edges="-161 163 254 256 498 156 295 -209"/>
		</vehicle>
		<vehicle id="119" depart="00.00" color="1,0,0" speedFactor="100">
			<route edges="-359 356 549 596 -294"/>
		</vehicle>
		<vehicle id="887" depart="00.00" color="1,0,0" speedFactor="100">
			<route edges="147 -86 87 -159 -55 -54 -53 51 402"/>
		</vehicle>
		<vehicle id="388" depart="00.00" color="1,0,0" speedFactor="100">
			<route edges="-291 -419 -199 -198 530 621 -290 291"/>
		</vehicle>
		<vehicle id="410" depart="00.00" color="1,0,0" speedFactor="100">
			<route edges="167 415 625 -146 148 180 -188"/>
		</vehicle>
		<vehicle id="615" depart="00.00" color="1,0,0" speedFactor="100">
			<route edges="180 -412 414 -367 -120 122 -52 56 569 570 571 -79"/>
		</vehicle>
		<vehicle id="465" depart="00.00" color="1,0,0" speedFactor="100">
			<route edges="634 -95 97 -315 311 -35 33 450 -138 139 -272 275"/>
		</vehicle>
		<vehicle id="708" depart="00.00" color="1,0,0" speedFactor="100">
			<route edges="45 -680 -4 0 1 2 -102 99 100"/>
		</vehicle>
		<vehicle id="950" depart="00.00" color="1,0,0" speedFactor="100">
			<route edges="-47 48 -98 97 -315 311 -35 33 450 -138 139 -272 275"/>
		</vehicle>
		<vehicle id="454" depart="00.00" color="1,0,0" speedFactor="100">
			<route edges="91 -297 -156 155 157 -162 163"/>
		</vehicle>
		<vehicle id="678" depart="00.00" color="1,0,0" speedFactor="100">
			<route edges="239 240 241 205 -630 -80 -277 276"/>
		</vehicle>
		<vehicle id="414" depart="00.00" color="1,0,0" speedFactor="100">
			<route edges="-15 17 18 258 259 260 -500 -593 -592 -77 76"/>
		</vehicle>
		<vehicle id="415" depart="00.00" color="1,0,0" speedFactor="100">
			<route edges="536 537 -535 -312 315"/>
		</vehicle>
		<vehicle id="897" depart="00.00" color="1,0,0" speedFactor="100">
			<route edges="-199 -198 -197 193 194 -323 324"/>
		</vehicle>
		<vehicle id="706" depart="00.00" color="1,0,0" speedFactor="100">
			<route edges="-172 174 185 -195 -194 -193 197 198 199 -418"/>
		</vehicle>
		<vehicle id="111" depart="00.00" color="1,0,0" speedFactor="100">
			<route edges="13 -375 -374 -358 -357"/>
		</vehicle>
		<vehicle id="394" depart="00.00" color="1,0,0" speedFactor="100">
			<route edges="454 -369 -64 -63 -62 -61 -60"/>
		</vehicle>
		<vehicle id="701" depart="00.00" color="1,0,0" speedFactor="100">
			<route edges="3 -390 384 385 386 387 388 389 567"/>
		</vehicle>
		<vehicle id="283" depart="00.00" color="1,0,0" speedFactor="100">
			<route edges="-117 118 144"/>
		</vehicle>
		<vehicle id="563" depart="00.00" color="1,0,0" speedFactor="100">
			<route edges="-425 -5 -41 42 -36 38"/>
		</vehicle>
		<vehicle id="425" depart="00.00" color="1,0,0" speedFactor="100">
			<route edges="3 -11 -10 -9 -8 -7 -6 5"/>
		</vehicle>
		<vehicle id="224" depart="00.00" color="1,0,0" speedFactor="100">
			<route edges="26 320 556 -171 -170 169"/>
		</vehicle>
		<vehicle id="847" depart="00.00" color="1,0,0" speedFactor="100">
			<route edges="-241 -240 -239 236 237 67 -121 122 -52 51 402"/>
		</vehicle>
		<vehicle id="87" depart="00.00" color="1,0,0" speedFactor="100">
			<route edges="241 205 -630 -80 -277 -265 262"/>
		</vehicle>
		<vehicle id="762" depart="00.00" color="1,0,0" speedFactor="100">
			<route edges="28 233 379 -420 418 419"/>
		</vehicle>
		<vehicle id="729" depart="00.00" color="1,0,0" speedFactor="100">
			<route edges="-375 -374 -224 -223 -222 225 -257 -18 -17"/>
		</vehicle>
		<vehicle id="490" depart="00.00" color="1,0,0" speedFactor="100">
			<route edges="-117 119 204 646 -164 165 180 -412 414"/>
		</vehicle>
		<vehicle id="917" depart="00.00" color="1,0,0" speedFactor="100">
			<route edges="-32 33 450 -138 142 -259 -258 -18 -17"/>
		</vehicle>
		<vehicle id="419" depart="00.00" color="1,0,0" speedFactor="100">
			<route edges="-47 46 309 -677 -306 -231 230 -361 360 -101"/>
		</vehicle>
		<vehicle id="712" depart="00.00" color="1,0,0" speedFactor="100">
			<route edges="39 117 -653 -36 39 119 204 646 -164"/>
		</vehicle>
		<vehicle id="57" depart="00.00" color="1,0,0" speedFactor="100">
			<route edges="615 89 92 -427 -69"/>
		</vehicle>
		<vehicle id="311" depart="00.00" color="1,0,0" speedFactor="100">
			<route edges="531 -140 139 -372"/>
		</vehicle>
		<vehicle id="331" depart="00.00" color="1,0,0" speedFactor="100">
			<route edges="-50 680 -45 46 309 -677 -306 305 634"/>
		</vehicle>
		<vehicle id="890" depart="00.00" color="1,0,0" speedFactor="100">
			<route edges="-552 -34 33 450 -138 139 391 500 -260 -142"/>
		</vehicle>
		<vehicle id="971" depart="00.00" color="1,0,0" speedFactor="100">
			<route edges="-11 -10 -9 -8 -7 -6 5"/>
		</vehicle>
		<vehicle id="382" depart="00.00" color="1,0,0" speedFactor="100">
			<route edges="158 -49 -4 0 1 2 -102 99 100"/>
		</vehicle>
		<vehicle id="648" depart="00.00" color="1,0,0" speedFactor="100">
			<route edges="-157 -155 156 297 -91 90 -325 -245 401 406"/>
		</vehicle>
		<vehicle id="374" depart="00.00" color="1,0,0" speedFactor="100">
			<route edges="-404 -276 277 80"/>
		</vehicle>
		<vehicle id="981" depart="00.00" color="1,0,0" speedFactor="100">
			<route edges="558 -212 -176 685 684 6 7 8 9 10 11 -3 0 1 2 -102 99 100"/>
		</vehicle>
		<vehicle id="941" depart="00.00" color="1,0,0" speedFactor="100">
			<route edges="-148 146 -625 -415 -167 164 -646 -204 -119"/>
		</vehicle>
		<vehicle id="875" depart="00.00" color="1,0,0" speedFactor="100">
			<route edges="-549 -356 357 -68 -443"/>
		</vehicle>
		<vehicle id="356" depart="00.00" color="1,0,0" speedFactor="100">
			<route edges="596 -294 292 -226 225 -257 -18 -17"/>
		</vehicle>
		<vehicle id="72" depart="00.00" color="1,0,0" speedFactor="100">
			<route edges="-57 60 61 62 63 64 368 455 484 -83 -82 81 -136 135 -116"/>
		</vehicle>
		<vehicle id="204" depart="00.00" color="1,0,0" speedFactor="100">
			<route edges="-669 -649 -250 248 -382 -238 236 237 65 -516 -515 -364"/>
		</vehicle>
		<vehicle id="152" depart="00.00" color="1,0,0" speedFactor="100">
			<route edges="418 -199 -198 -197 193 194 195 -178 -177 175 464 679 430 322 -117"/>
		</vehicle>
		<vehicle id="685" depart="00.00" color="1,0,0" speedFactor="100">
			<route edges="558 -212 211 -227 -173 174"/>
		</vehicle>
		<vehicle id="234" depart="00.00" color="1,0,0" speedFactor="100">
			<route edges="-70 71 -254 255 -217 215 220 -32 35"/>
		</vehicle>
		<vehicle id="744" depart="00.00" color="1,0,0" speedFactor="100">
			<route edges="164 244 401 -166 165 179 -436 242 243 -164"/>
		</vehicle>
		<vehicle id="29" depart="00.00" color="1,0,0" speedFactor="100">
			<route edges="288 -453 -21 19 20 24 -406 -401 245 325 -90 -615"/>
		</vehicle>
		<vehicle id="953" depart="00.00" color="1,0,0" speedFactor="100">
			<route edges="537 -609 -474 475"/>
		</vehicle>
		<vehicle id="784" depart="00.00" color="1,0,0" speedFactor="100">
			<route edges="-196 -29 30 363 -320"/>
		</vehicle>
		<vehicle id="717" depart="00.00" color="1,0,0" speedFactor="100">
			<route edges="160 597 -635 637 -303 304 -51 56 569 570 571 -79"/>
		</vehicle>
		<vehicle id="933" depart="00.00" color="1,0,0" speedFactor="100">
			<route edges="-100 -99 101 -360 362"/>
		</vehicle>
		<vehicle id="565" depart="00.00" color="1,0,0" speedFactor="100">
			<route edges="578 -70 71 256"/>
		</vehicle>
		<vehicle id="554" depart="00.00" color="1,0,0" speedFactor="100">
			<route edges="18 257 469 523 -293"/>
		</vehicle>
		<vehicle id="556" depart="00.00" color="1,0,0" speedFactor="100">
			<route edges="-454 -550 -246 -183 182 206 -88 86 -147 148 -165"/>
		</vehicle>
		<vehicle id="564" depart="00.00" color="1,0,0" speedFactor="100">
			<route edges="38 157 -162 163 254 -71 70 -74 73"/>
		</vehicle>
		<vehicle id="694" depart="00.00" color="1,0,0" speedFactor="100">
			<route edges="144 399 -153 154 -324"/>
		</vehicle>
		<vehicle id="958" depart="00.00" color="1,0,0" speedFactor="100">
			<route edges="147 -86 88 -206 -182 183 247 289 454 -369"/>
		</vehicle>
		<vehicle id="647" depart="00.00" color="1,0,0" speedFactor="100">
			<route edges="-54 -53 56 569 570 571 -79 80 630 -205"/>
		</vehicle>
		<vehicle id="589" depart="00.00" color="1,0,0" speedFactor="100">
			<route edges="-148 145 187 -150 -554 -410 -122 120"/>
		</vehicle>
		<vehicle id="626" depart="00.00" color="1,0,0" speedFactor="100">
			<route edges="-41 40 -50 680 -45 48 -98"/>
		</vehicle>
		<vehicle id="767" depart="00.00" color="1,0,0" speedFactor="100">
			<route edges="-49 -4 3 -11 -10 -9 -8 -7 -6"/>
		</vehicle>
		<vehicle id="998" depart="00.00" color="1,0,0" speedFactor="100">
			<route edges="197 198 -483 -420"/>
		</vehicle>
		<vehicle id="113" depart="00.00" color="1,0,0" speedFactor="100">
			<route edges="498 155 157 -162 163"/>
		</vehicle>
		<vehicle id="385" depart="00.00" color="1,0,0" speedFactor="100">
			<route edges="324 -196 197 198 199"/>
		</vehicle>
		<vehicle id="675" depart="00.00" color="1,0,0" speedFactor="100">
			<route edges="-178 -177 176 212 -558"/>
		</vehicle>
		<vehicle id="823" depart="00.00" color="1,0,0" speedFactor="100">
			<route edges="-587 -432 -105 104 396 -532 533 -216 217 559"/>
		</vehicle>
		<vehicle id="389" depart="00.00" color="1,0,0" speedFactor="100">
			<route edges="462 620 -466 -133 134 -419"/>
		</vehicle>
		<vehicle id="866" depart="00.00" color="1,0,0" speedFactor="100">
			<route edges="-274 272 -139 138 -450 -33 34 552 97 -315 311 -35 33 450 -138 139 -272 275"/>
		</vehicle>
		<vehicle id="761" depart="00.00" color="1,0,0" speedFactor="100">
			<route edges="-248 249 -132 134 -419 -418 420 -379 -233"/>
		</vehicle>
		<vehicle id="883" depart="00.00" color="1,0,0" speedFactor="100">
			<route edges="683 517 670 681 -45 46"/>
		</vehicle>
		<vehicle id="599" depart="00.00" color="1,0,0" speedFactor="100">
			<route edges="-166 164 -646 -204"/>
		</vehicle>
		<vehicle id="209" depart="00.00" color="1,0,0" speedFactor="100">
			<route edges="40 -50 680 -45 48 -98"/>
		</vehicle>
		<vehicle id="162" depart="00.00" color="1,0,0" speedFactor="100">
			<route edges="-263 264 -57 60 61 62 63 64 369 -454 -289 284 285"/>
		</vehicle>
		<vehicle id="808" depart="00.00" color="1,0,0" speedFactor="100">
			<route edges="-320 -26 27 -378 -377"/>
		</vehicle>
		<vehicle id="282" depart="00.00" color="1,0,0" speedFactor="100">
			<route edges="244 401 -166 164 -646"/>
		</vehicle>
		<vehicle id="975" depart="00.00" color="1,0,0" speedFactor="100">
			<route edges="-329 -328 -327 -253 252 546 513 -107 108 109 110 111 112 113 114 25 210 -14 13 -375 -374 -224 -223 -222 225 -257 258 259 261"/>
		</vehicle>
		<vehicle id="586" depart="00.00" color="1,0,0" speedFactor="100">
			<route edges="563 -522 -451 -33 34 552 95"/>
		</vehicle>
		<vehicle id="523" depart="00.00" color="1,0,0" speedFactor="100">
			<route edges="256 498 155 -38 36 -42"/>
		</vehicle>
		<vehicle id="314" depart="00.00" color="1,0,0" speedFactor="100">
			<route edges="247 283 327 328 329 330 331 528"/>
		</vehicle>
		<vehicle id="595" depart="00.00" color="1,0,0" speedFactor="100">
			<route edges="310 3 -11 -10 -9 -8 -7 -6 -684 -685 176"/>
		</vehicle>
		<vehicle id="145" depart="00.00" color="1,0,0" speedFactor="100">
			<route edges="-34 33 450 -138 142 261 -504 503 524 -292 293"/>
		</vehicle>
		<vehicle id="691" depart="00.00" color="1,0,0" speedFactor="100">
			<route edges="-262 264 -57 60 61 62 63 64 369 -454 -289"/>
		</vehicle>
		<vehicle id="179" depart="00.00" color="1,0,0" speedFactor="100">
			<route edges="-41 42 -36 37 208 401 406 429 -19 22"/>
		</vehicle>
		<vehicle id="877" depart="00.00" color="1,0,0" speedFactor="100">
			<route edges="-38 36 -42 41 6 7 8 9 10 11"/>
		</vehicle>
		<vehicle id="486" depart="00.00" color="1,0,0" speedFactor="100">
			<route edges="418 -199 -198 -197 193 431 -267 268 363 556 -171 -170"/>
		</vehicle>
		<vehicle id="387" depart="00.00" color="1,0,0" speedFactor="100">
			<route edges="558 -212 -176 175 464 679 430 44 94 520 324"/>
		</vehicle>
		<vehicle id="928" depart="00.00" color="1,0,0" speedFactor="100">
			<route edges="46 310 0 1 2 -102 99"/>
		</vehicle>
		<vehicle id="672" depart="00.00" color="1,0,0" speedFactor="100">
			<route edges="116 -135 -405 404 -262 263 -440"/>
		</vehicle>
		<vehicle id="73" depart="00.00" color="1,0,0" speedFactor="100">
			<route edges="116 -135 136 -81 82 83 -489 -488 487 -606 -605"/>
		</vehicle>
		<vehicle id="849" depart="00.00" color="1,0,0" speedFactor="100">
			<route edges="273 372 -139 140 141 -103"/>
		</vehicle>
		<vehicle id="945" depart="00.00" color="1,0,0" speedFactor="100">
			<route edges="40 -50 -682 -510 -161 163 254"/>
		</vehicle>
		<vehicle id="65" depart="00.00" color="1,0,0" speedFactor="100">
			<route edges="-100 -99 102 -2 -1 -0 -310 -46"/>
		</vehicle>
		<vehicle id="919" depart="00.00" color="1,0,0" speedFactor="100">
			<route edges="-292 -106 103 -141 -140 139 -372"/>
		</vehicle>
		<vehicle id="149" depart="00.00" color="1,0,0" speedFactor="100">
			<route edges="-37 36 -42 41 6 7 8 9 10 11 -3 0 1 2 -102 99 100"/>
		</vehicle>
		<vehicle id="716" depart="00.00" color="1,0,0" speedFactor="100">
			<route edges="17 18 257 -225 222 223 224 -358 -357 359"/>
		</vehicle>
		<vehicle id="19" depart="00.00" color="1,0,0" speedFactor="100">
			<route edges="-197 193 194 195 -178 -177 176 212 -558"/>
		</vehicle>
		<vehicle id="722" depart="00.00" color="1,0,0" speedFactor="100">
			<route edges="-416 -141 -140 139 391 -593 -501 -78"/>
		</vehicle>
		<vehicle id="910" depart="00.00" color="1,0,0" speedFactor="100">
			<route edges="-155 156 297 397 577 578 -70 71 -254 255"/>
		</vehicle>
		<vehicle id="408" depart="00.00" color="1,0,0" speedFactor="100">
			<route edges="164 -646 -204 -119 117 -322 44 -652"/>
		</vehicle>
		<vehicle id="487" depart="00.00" color="1,0,0" speedFactor="100">
			<route edges="29 196 -154 151 -458 460 -66 67 -121 120"/>
		</vehicle>
		<vehicle id="602" depart="00.00" color="1,0,0" speedFactor="100">
			<route edges="174 184"/>
		</vehicle>
		<vehicle id="794" depart="00.00" color="1,0,0" speedFactor="100">
			<route edges="17 18 257 -225 222 223 224 374 375 -13 14 -210 -25 24 -406"/>
		</vehicle>
		<vehicle id="413" depart="00.00" color="1,0,0" speedFactor="100">
			<route edges="45 -680 -4 0 1 2 -102 99 100"/>
		</vehicle>
		<vehicle id="227" depart="00.00" color="1,0,0" speedFactor="100">
			<route edges="179 471 -493 494 -611 -473 -437 -300 298 477 -143 -118"/>
		</vehicle>
		<vehicle id="55" depart="00.00" color="1,0,0" speedFactor="100">
			<route edges="558 -212 -176 685 684 6 7 8 9 10 11 -3 -310"/>
		</vehicle>
		<vehicle id="776" depart="00.00" color="1,0,0" speedFactor="100">
			<route edges="-264 265 277 80 630 -205"/>
		</vehicle>
		<vehicle id="424" depart="00.00" color="1,0,0" speedFactor="100">
			<route edges="638 -400 -144 -118 -39 38"/>
		</vehicle>
		<vehicle id="342" depart="00.00" color="1,0,0" speedFactor="100">
			<route edges="-401 245 326 -37 36 -42 41 5 426"/>
		</vehicle>
		<vehicle id="918" depart="00.00" color="1,0,0" speedFactor="100">
			<route edges="-138 142 -259 -258 257 -225 226 -524 523 -293"/>
		</vehicle>
		<vehicle id="830" depart="00.00" color="1,0,0" speedFactor="100">
			<route edges="425 -685 177 178 -195 -235"/>
		</vehicle>
		<vehicle id="61" depart="00.00" color="1,0,0" speedFactor="100">
			<route edges="-98 95 96 230 -361 360 -101 99 100"/>
		</vehicle>
		<vehicle id="165" depart="00.00" color="1,0,0" speedFactor="100">
			<route edges="558 -212 -176 685 684 6 7 8 9 10 11 -3 0 1 2 -102 99 100"/>
		</vehicle>
		<vehicle id="557" depart="00.00" color="1,0,0" speedFactor="100">
			<route edges="-100 -99 102 -2 -1 -0 4 49 -158 -155"/>
		</vehicle>
		<vehicle id="332" depart="00.00" color="1,0,0" speedFactor="100">
			<route edges="237 67 -121 122 -52 53 -636 637"/>
		</vehicle>
		<vehicle id="70" depart="00.00" color="1,0,0" speedFactor="100">
			<route edges="554 149 -55 -54 -53 56 569 570 571 -79 80 630 -205"/>
		</vehicle>
		<vehicle id="976" depart="00.00" color="1,0,0" speedFactor="100">
			<route edges="511 -246 -183 182 206 -88 -23 19 20 25 210 -14 13 -375 -374 -224 -223 -222 226"/>
		</vehicle>
		<vehicle id="134" depart="00.00" color="1,0,0" speedFactor="100">
			<route edges="241 205 -630 -80 79 -571 85 -278 -265"/>
		</vehicle>
		<vehicle id="683" depart="00.00" color="1,0,0" speedFactor="100">
			<route edges="-392 -236 239 240 241 205 -630 -80"/>
		</vehicle>
		<vehicle id="120" depart="00.00" color="1,0,0" speedFactor="100">
			<route edges="584 585 214 425 -685 177 178 -195 -194 -193 -29 31 -319"/>
		</vehicle>
		<vehicle id="604" depart="00.00" color="1,0,0" speedFactor="100">
			<route edges="72 534 587 -219 220 -32 35 -311 312"/>
		</vehicle>
		<vehicle id="510" depart="00.00" color="1,0,0" speedFactor="100">
			<route edges="-254 255 559 -518 -683 510 682 -4 3 -11 -10 -9 -8 -7 -6"/>
		</vehicle>
		<vehicle id="739" depart="00.00" color="1,0,0" speedFactor="100">
			<route edges="-419 -418 420 -379 -233 -28 26 319 -31 29 196"/>
		</vehicle>
		<vehicle id="291" depart="00.00" color="1,0,0" speedFactor="100">
			<route edges="117 -322 -43 40 -50 -4 0 1 2 -102 99 100"/>
		</vehicle>
		<vehicle id="940" depart="00.00" color="1,0,0" speedFactor="100">
			<route edges="-365 366 515 539 656 613"/>
		</vehicle>
		<vehicle id="180" depart="00.00" color="1,0,0" speedFactor="100">
			<route edges="-444 443 68 358 374 375 -13"/>
		</vehicle>
		<vehicle id="105" depart="00.00" color="1,0,0" speedFactor="100">
			<route edges="79 -571 -570 137 442 478 -561 -190 192"/>
		</vehicle>
		<vehicle id="255" depart="00.00" color="1,0,0" speedFactor="100">
			<route edges="26 319 -31 29 193 194 195 -178 -177 685 684 -41"/>
		</vehicle>
		<vehicle id="548" depart="00.00" color="1,0,0" speedFactor="100">
			<route edges="79 -571 -570 -569 -56 53 54 55 160 -281 280 543 -181 183 246 550"/>
		</vehicle>
		<vehicle id="351" depart="00.00" color="1,0,0" speedFactor="100">
			<route edges="43 44 94 520 324 371 423 424 466 -620 -462 461 -622"/>
		</vehicle>
		<vehicle id="625" depart="00.00" color="1,0,0" speedFactor="100">
			<route edges="607 -371 -196 197 198 199 -418"/>
		</vehicle>
		<vehicle id="404" depart="00.00" color="1,0,0" speedFactor="100">
			<route edges="584 585 214 425 -685 177 178 -195 -194 -193 197 198 -483"/>
		</vehicle>
		<vehicle id="518" depart="00.00" color="1,0,0" speedFactor="100">
			<route edges="-100 -99 102 -2 -1 -0 4 50 -40 43 44"/>
		</vehicle>
		<vehicle id="362" depart="00.00" color="1,0,0" speedFactor="100">
			<route edges="-376 -224 -223 -222 225 -257 -18 -17 15"/>
		</vehicle>
		<vehicle id="31" depart="00.00" color="1,0,0" speedFactor="100">
			<route edges="138 -450 -33 34 552 98 -48 45 -680 50 -40 41 5"/>
		</vehicle>
		<vehicle id="585" depart="00.00" color="1,0,0" speedFactor="100">
			<route edges="-5 -41 40 -50 680 -45"/>
		</vehicle>
		<vehicle id="118" depart="00.00" color="1,0,0" speedFactor="100">
			<route edges="558 -212 -176 175 464 679 430 322 -117 119 204 646 -164"/>
		</vehicle>
		<vehicle id="49" depart="00.00" color="1,0,0" speedFactor="100">
			<route edges="136 -81 82 83 -489 -488 487 -606 -605 -604"/>
		</vehicle>
		<vehicle id="966" depart="00.00" color="1,0,0" speedFactor="100">
			<route edges="-243 -242 437 438 -65 67 -121 122 -52 56"/>
		</vehicle>
		<vehicle id="974" depart="00.00" color="1,0,0" speedFactor="100">
			<route edges="-51 52 -122 121 -67 66 -460 458 -151 153 -399 -144 -118 -39 38 158 -49 680"/>
		</vehicle>
		<vehicle id="839" depart="00.00" color="1,0,0" speedFactor="100">
			<route edges="155 158 -49 -4 0 1 2 -102 99 100"/>
		</vehicle>
		<vehicle id="333" depart="00.00" color="1,0,0" speedFactor="100">
			<route edges="402 -442 -137 -569 -56 52 -122 121 -67 -237"/>
		</vehicle>
		<vehicle id="655" depart="00.00" color="1,0,0" speedFactor="100">
			<route edges="-96 -95 98 -48 45 -680 49 -158"/>
		</vehicle>
		<vehicle id="266" depart="00.00" color="1,0,0" speedFactor="100">
			<route edges="454 -369 -64 -63 -62 -61 -60 58"/>
		</vehicle>
		<vehicle id="550" depart="00.00" color="1,0,0" speedFactor="100">
			<route edges="-199 -198 -197 193 194 195 -178 -177 685 684 6 7 8 9 10 11 -3 0 1 2 -102"/>
		</vehicle>
		<vehicle id="542" depart="00.00" color="1,0,0" speedFactor="100">
			<route edges="558 -212 -176 175 464 679 430 322 -117 -39 37 209 -295 296"/>
		</vehicle>
		<vehicle id="175" depart="00.00" color="1,0,0" speedFactor="100">
			<route edges="38 158 -49 -4 0 1 2 -102 99 100"/>
		</vehicle>
		<vehicle id="353" depart="00.00" color="1,0,0" speedFactor="100">
			<route edges="-531 -504 503 523 -293 292"/>
		</vehicle>
		<vehicle id="581" depart="00.00" color="1,0,0" speedFactor="100">
			<route edges="543 -181 183 247 283 -253 252"/>
		</vehicle>
		<vehicle id="193" depart="00.00" color="1,0,0" speedFactor="100">
			<route edges="220 -32 33 450 -138 139 -372 373"/>
		</vehicle>
		<vehicle id="10" depart="00.00" color="1,0,0" speedFactor="100">
			<route edges="-100 -99 102 -2 -1 -0 3 -11 -10 -9 -8 -7 -6 -684 -685 177 178 -195 -194 -193 197 198 199"/>
		</vehicle>
		<vehicle id="469" depart="00.00" color="1,0,0" speedFactor="100">
			<route edges="3 -11 -10 -9 -8 -7 -6 -684 -685 177 178 -195 -194 -193 197 198 -483"/>
		</vehicle>
		<vehicle id="164" depart="00.00" color="1,0,0" speedFactor="100">
			<route edges="-199 -198 -197 -29 30 -268 -234 -184 -174"/>
		</vehicle>
		<vehicle id="530" depart="00.00" color="1,0,0" speedFactor="100">
			<route edges="121 -67 65 -659 661 -654 -66 67 -121 122 -52 56 569 570 571 -79"/>
		</vehicle>
		<vehicle id="807" depart="00.00" color="1,0,0" speedFactor="100">
			<route edges="-151 154 -196 -29 30 -268"/>
		</vehicle>
		<vehicle id="401" depart="00.00" color="1,0,0" speedFactor="100">
			<route edges="306 677 -309 310 3 -11 -10 -9 -8 -7 -6 -684 -685 177 178 -195 -194 -193 197 198"/>
		</vehicle>
		<vehicle id="366" depart="00.00" color="1,0,0" speedFactor="100">
			<route edges="-224 -223 -222 225 -257 -18"/>
		</vehicle>
		<vehicle id="124" depart="00.00" color="1,0,0" speedFactor="100">
			<route edges="663 -361 360 -101 102 -2 -1 -0 3 -11 -10 -9 -8 -7 -6 5"/>
		</vehicle>
		<vehicle id="133" depart="00.00" color="1,0,0" speedFactor="100">
			<route edges="-151 154 -196 -29 30 -268 -234 -184 -174"/>
		</vehicle>
		<vehicle id="226" depart="00.00" color="1,0,0" speedFactor="100">
			<route edges="-100 -99 102 -2 -1 -0 4 49 -158"/>
		</vehicle>
		<vehicle id="612" depart="00.00" color="1,0,0" speedFactor="100">
			<route edges="-100 -99 102 -2 -1 -0 3 -11 -10 -9 -8 -7 -6 5"/>
		</vehicle>
		<vehicle id="364" depart="00.00" color="1,0,0" speedFactor="100">
			<route edges="-376 -224 -223 -222 225 -257 -18 -17 15 16 77"/>
		</vehicle>
		<vehicle id="922" depart="00.00" color="1,0,0" speedFactor="100">