<?xml version="1.0"?>

<routes>
    <vType id="vtype1" accel="4.6" decel="6.5" sigma="0.5" length="2.5" minGap="2.5" maxSpeed="100" color="1,1,0"/>
    <vehicle id="1" type="vtype1" depart="0" color="1,0,0" speedFactor="100">
        <route edges="-15 17 18 257 -225 222 223 224 374 375 -13 14 -210 -25 -20 -19 23 87 -159 -55 -54 -53 56 569 570 571 -79 80 -479"/>
    </vehicle>
    <vehicle id="10" type="vtype1" depart="0" color="1,0,0" speedFactor="100">
        <route edges="-100 -99 102 -2 -1 -0 3 -11 -10 -9 -8 -7 -6 -684 -685 177 178 -195 -194 -193 197 198 199"/>
    </vehicle>
    <vehicle id="100" type="vtype1" depart="0" color="1,0,0" speedFactor="100">
        <route edges="3 -11 -10 -9 -8 -7 -6 5 426"/>
    </vehicle>
    <vehicle id="11" type="vtype1" depart="0" color="1,0,0" speedFactor="100">
        <route edges="-418 420 483 -198 -197 193 194 195 -178 -177 685 684 6 7 8 9 10 11 -3 0 1 2 -102 99 100"/>
    </vehicle>
    <vehicle id="12" type="vtype1" depart="0" color="1,0,0" speedFactor="100">
        <route edges="375 -13 14 -210 -25 -20 -19 23 87 -159 -55 -54 -53 56 569 570 571 -79 80"/>
    </vehicle>
    <vehicle id="13" type="vtype1" depart="0" color="1,0,0" speedFactor="100">
        <route edges="-80 -277 277"/>
    </vehicle>
    <vehicle id="14" type="vtype1" depart="0" color="1,0,0" speedFactor="100">
        <route edges="277 80 630 -205"/>
    </vehicle>
    <vehicle id="15" type="vtype1" depart="0" color="1,0,0" speedFactor="100">
        <route edges="205 -630 -80 79 -571 -570 -569 -56 53 54 55 159 -87 -23 19 20 25 210 -14 13 -375 -374 -224 -223 -222 225 -257 -18 -17 15"/>
    </vehicle>
    <vehicle id="16" type="vtype1" depart="0" color="1,0,0" speedFactor="100">
        <route edges="557 558 -212 -176 685 684 6 7 8 9 10 11 -3 0 1 2 -102 99 100"/>
    </vehicle>
    <vehicle id="17" type="vtype1" depart="0" color="1,0,0" speedFactor="100">
        <route edges="-100 -99 102 -2 -1 -0 3 -11 -10 -9 -8 -7 -6 5 426"/>
    </vehicle>
    <vehicle id="18" type="vtype1" depart="0" color="1,0,0" speedFactor="100">
        <route edges="-100 -99 102 -2 -1 -0 3 -11 -10 -9 -8 -7 -6 -684 -685 177 178 -195 -194 -193 197 198 199"/>
    </vehicle>
    <vehicle id="19" type="vtype1" depart="0" color="1,0,0" speedFactor="100">
        <route edges="-197 193 194 195 -178 -177 176 212 -558"/>
    </vehicle>
    <vehicle id="2" type="vtype1" depart="0" color="1,0,0" speedFactor="100">
        <route edges="-154 151 -458 460 -66 67 -121 122 -52 53 54 55 159 -87 -23 19 20 25 210 -14 13 -375 -374 -224 -223 -222"/>
    </vehicle>
    <vehicle id="20" type="vtype1" depart="0" color="1,0,0" speedFactor="100">
        <route edges="79 -571 -570 -569 -56 53 54 55 159 -87 -23 19 20 25 210 -14 13 -375 -374 -224 -223 -222 226"/>
    </vehicle>
    <vehicle id="22" type="vtype1" depart="0" color="1,0,0" speedFactor="100">
        <route edges="324 -196 197 198 199 -418"/>
    </vehicle>
    <vehicle id="23" type="vtype1" depart="0" color="1,0,0" speedFactor="100">
        <route edges="205 -630 -80 79 -571 -570 -569 -56 53 54 55 159 -87 -23 19 20 25 210 -14 13 -375 -374 -224 -223 -222 225 -257 -18 -17 15 16"/>
    </vehicle>
    <vehicle id="24" type="vtype1" depart="0" color="1,0,0" speedFactor="100">
        <route edges="-77 -16 -15 17 18 257 -225 222 223 224 374 375 -13 14 -210 -25 25 210 -14"/>
    </vehicle>
    <vehicle id="25" type="vtype1" depart="0" color="1,0,0" speedFactor="100">
        <route edges="-14 13 -375 -374 -224 -223 -222 225 -257 258 259 -142 138"/>
    </vehicle>
    <vehicle id="26" type="vtype1" depart="0" color="1,0,0" speedFactor="100">
        <route edges="-138 142 -259 -258 257 -225 222 223 224 374 375 -13 14 -210 -25 -20 -19 23 87 -159 -55 -54 -53 56 569 570 571 -79"/>
    </vehicle>
    <vehicle id="27" type="vtype1" depart="0" color="1,0,0" speedFactor="100">
        <route edges="-100 -99 102 -2 -1 -0 3 -11 -10 -9 -8 -7 -6 -684 -685 177 178 -195 -194 -193 197 198 199 -418"/>
    </vehicle>
    <vehicle id="28" type="vtype1" depart="0" color="1,0,0" speedFactor="100">
        <route edges="369 -454 -289 284 285 286 287 288 -453 -21 22 -167 166 -401"/>
    </vehicle>
    <vehicle id="29" type="vtype1" depart="0" color="1,0,0" speedFactor="100">
        <route edges="288 -453 -21 19 20 24 -406 -401 245 325 -90 91"/>
    </vehicle>
    <vehicle id="3" type="vtype1" depart="0" color="1,0,0" speedFactor="100">
        <route edges="646 -646 -204 -119 117 -322 -430 -679 -464 -175 176 212 -558"/>
    </vehicle>
    <vehicle id="31" type="vtype1" depart="0" color="1,0,0" speedFactor="100">
        <route edges="138 -450 -33 34 552 98 -48 45 -680 50 -40 41 5 426"/>
    </vehicle>
    <vehicle id="33" type="vtype1" depart="0" color="1,0,0" speedFactor="100">
        <route edges="-421 -27 26 319 -31 29 196 -154"/>
    </vehicle>
    <vehicle id="34" type="vtype1" depart="0" color="1,0,0" speedFactor="100">
        <route edges="-154 153 -399 -144 143 -477 -298 300 436 -179 -148 147 -86 88 -206 -182 183 247 283 -253 252"/>
    </vehicle>
    <vehicle id="35" type="vtype1" depart="0" color="1,0,0" speedFactor="100">
        <route edges="-252 253 -283 -247 -183 182 206 -88 -23 19 20 25 210 -14 13 -375 -374 -224 -223 -222 225 -257 -18 -17 15"/>
    </vehicle>
    <vehicle id="37" type="vtype1" depart="0" color="1,0,0" speedFactor="100">
        <route edges="510 682 50 -40 41 5 425 -685 176 212 -558"/>
    </vehicle>
    <vehicle id="38" type="vtype1" depart="0" color="1,0,0" speedFactor="100">
        <route edges="-259 -258 257 -225 222 223 224 374 375 -13 14 -210 -25 -20 -19 23 87 -159 -55 -54 -53 51 -304"/>
    </vehicle>
    <vehicle id="4" type="vtype1" depart="0" color="1,0,0" speedFactor="100">
        <route edges="-374 -224 -223 -222 225 -257 -18 -17 15"/>
    </vehicle>
    <vehicle id="40" type="vtype1" depart="0" color="1,0,0" speedFactor="100">
        <route edges="304 -51 52 -122 121 -67 65 -438 -437 242 243 244 245 325 -90 89 93 -130 131"/>
    </vehicle>
    <vehicle id="41" type="vtype1" depart="0" color="1,0,0" speedFactor="100">
        <route edges="357 358 374 375 -446 443 68 358 -358 -357 -131 130 -93"/>
    </vehicle>
    <vehicle id="42" type="vtype1" depart="0" color="1,0,0" speedFactor="100">
        <route edges="673 578 -74 73 130 -93 -89 90 -325 -245 245 325 -90 89 93 -130 131 357 358 -224 -223 -222 225 -257 -18 -17 15 16 76"/>
    </vehicle>
    <vehicle id="43" type="vtype1" depart="0" color="1,0,0" speedFactor="100">
        <route edges="-100 -99 102 -2 -1 -0 3 -11 -10 -9 -8 -7 -6 -684 -685 177 178 -195 -194 -193 197 198 199"/>
    </vehicle>
    <vehicle id="44" type="vtype1" depart="0" color="1,0,0" speedFactor="100">
        <route edges="-483 -379 377 378 421 608"/>
    </vehicle>
    <vehicle id="45" type="vtype1" depart="0" color="1,0,0" speedFactor="100">
        <route edges="-100 -99 102 -2 -1 -0 3 -11 -10 -9 -8 -7 -6 -684 -685 177 178 -195 -194 -193 197 198"/>
    </vehicle>
    <vehicle id="46" type="vtype1" depart="0" color="1,0,0" speedFactor="100">
        <route edges="205 -630 -80 79 -571 -570 -569 -56 53 54 55 159 -87 -23 19 20 25 210 -14 13 -375 -374 -224 -223 -222 225 -257 -18 -17 15 16 76"/>
    </vehicle>
    <vehicle id="48" type="vtype1" depart="0" color="1,0,0" speedFactor="100">
        <route edges="602 603 604 605 606 -486 -485 484 -83 -82 81 -136"/>
    </vehicle>
    <vehicle id="49" type="vtype1" depart="0" color="1,0,0" speedFactor="100">
        <route edges="136 -81 82 83 -489 -488 487 -606 -605 -604"/>
    </vehicle>
    <vehicle id="5" type="vtype1" depart="0" color="1,0,0" speedFactor="100">
        <route edges="-15 17"/>
    </vehicle>
    <vehicle id="50" type="vtype1" depart="0" color="1,0,0" speedFactor="100">
        <route edges="-136 -405 404"/>
    </vehicle>
    <vehicle id="51" type="vtype1" depart="0" color="1,0,0" speedFactor="100">
        <route edges="-7 -6 -684 -685 177 178 -195 -194 -193 197"/>
    </vehicle>
    <vehicle id="52" type="vtype1" depart="0" color="1,0,0" speedFactor="100">
        <route edges="-276 278 -85 -570 -569 -56 53 54 55 159 -87 -23 19 20 25 210 -14 13 -375 -374 -224 -223 -222 225 -257 -18 -17 15"/>
    </vehicle>
    <vehicle id="53" type="vtype1" depart="0" color="1,0,0" speedFactor="100">
        <route edges="-225 222 223 224 374 375 -13 14 -210 -25 -20 -19 23 86 -147"/>
    </vehicle>
    <vehicle id="54" type="vtype1" depart="0" color="1,0,0" speedFactor="100">
        <route edges="148 180 -412 414 -367 -120 122 -52 51 402"/>
    </vehicle>
    <vehicle id="55" type="vtype1" depart="0" color="1,0,0" speedFactor="100">
        <route edges="-175 685 684 6 7 8 9 10 11 -3 -310"/>
    </vehicle>
    <vehicle id="56" type="vtype1" depart="0" color="1,0,0" speedFactor="100">
        <route edges="156 297 -91 89 92 -427 428"/>
    </vehicle>
    <vehicle id="57" type="vtype1" depart="0" color="1,0,0" speedFactor="100">
        <route edges="615 89 92 -427 -69 -443"/>
    </vehicle>
    <vehicle id="58" type="vtype1" depart="0" color="1,0,0" speedFactor="100">
        <route edges="444 449 -210 -25 25 210 -14 13 -375 -374 -224 -223 -222 226 -292 -106 103 -141 -140 139 -372 373"/>
    </vehicle>
    <vehicle id="59" type="vtype1" depart="0" color="1,0,0" speedFactor="100">
        <route edges="-103 104 -75 73 130 -93 -89 90 -325 -245 -244 -243 -242 437 438 -65 -237 -236 239 240 241"/>
    </vehicle>
    <vehicle id="6" type="vtype1" depart="0" color="1,0,0" speedFactor="100">
        <route edges="558 -212 -176 685 684 6 7 8 9 10 11 -3 0 1 2 -102 99 100"/>
    </vehicle>
    <vehicle id="60" type="vtype1" depart="0" color="1,0,0" speedFactor="100">
        <route edges="-302 304 -51 52 -122 121 -67 66 -460 458 -151 154 -324 -520 -94 -44 -43 40 -50 680 -45 48 -687 -688"/>
    </vehicle>
    <vehicle id="61" type="vtype1" depart="0" color="1,0,0" speedFactor="100">
        <route edges="687 -98 95 96 230 -361 360 -101 99 100"/>
    </vehicle>
    <vehicle id="62" type="vtype1" depart="0" color="1,0,0" speedFactor="100">
        <route edges="-48 47 -316 -221 219 -587 -432 -105 103 -141 -140 139 -372 373"/>
    </vehicle>
    <vehicle id="63" type="vtype1" depart="0" color="1,0,0" speedFactor="100">
        <route edges="-80 79 -571 -570 -569 -56 53 54 55 159 -87 -23 19 20 25 491 -689 -270 -590 492 589"/>
    </vehicle>
    <vehicle id="64" type="vtype1" depart="0" color="1,0,0" speedFactor="100">
        <route edges="-406 -401 245 326 -37 36 -42 40 -50 -4 0 1 2 -102 99 100"/>
    </vehicle>
    <vehicle id="66" type="vtype1" depart="0" color="1,0,0" speedFactor="100">
        <route edges="17 18 257 -225 222 223 224 374 375 -13 14 -210 -25 -114 -113 -112 -111 -110 -109 -108 107 -513"/>
    </vehicle>
    <vehicle id="67" type="vtype1" depart="0" color="1,0,0" speedFactor="100">
        <route edges="51 -304 302 -192 -59 58"/>
    </vehicle>
    <vehicle id="69" type="vtype1" depart="0" color="1,0,0" speedFactor="100">
        <route edges="-15 17 18 257 -225 222 223 224 374 375 -13 14 -210 -25 -20 -19 23 87 -159 -55 -54 -53 52 -122 120 365"/>
    </vehicle>
    <vehicle id="7" type="vtype1" depart="0" color="1,0,0" speedFactor="100">
        <route edges="7 8 9 10 11 -3 0 1 2 -102 99"/>
    </vehicle>
    <vehicle id="70" type="vtype1" depart="0" color="1,0,0" speedFactor="100">
        <route edges="554 149 -55 -54 -53 56 569 570 571 -79 80 630 -205"/>
    </vehicle>
    <vehicle id="71" type="vtype1" depart="0" color="1,0,0" speedFactor="100">
        <route edges="-117 119 204 646 -164 167 -22 21 453 -288 -287 -286 -285 -284 289 454 -369"/>
    </vehicle>
    <vehicle id="72" type="vtype1" depart="0" color="1,0,0" speedFactor="100">
        <route edges="-84 81 -136 135 -116 115"/>
    </vehicle>
    <vehicle id="73" type="vtype1" depart="0" color="1,0,0" speedFactor="100">
        <route edges="-606 -605"/>
    </vehicle>
    <vehicle id="74" type="vtype1" depart="0" color="1,0,0" speedFactor="100">
        <route edges="330 331 -527 529 -456 455 484 -83 -82 81 -136"/>
    </vehicle>
    <vehicle id="76" type="vtype1" depart="0" color="1,0,0" speedFactor="100">
        <route edges="411 493"/>
    </vehicle>
    <vehicle id="77" type="vtype1" depart="0" color="1,0,0" speedFactor="100">
        <route edges="493 -471 -436 -300"/>
    </vehicle>
    <vehicle id="78" type="vtype1" depart="0" color="1,0,0" speedFactor="100">
        <route edges="299 599 -476 477 -143 -118 117 -322 -430 -679 -464 -175 176 212 -558"/>
    </vehicle>
    <vehicle id="79" type="vtype1" depart="0" color="1,0,0" speedFactor="100">
        <route edges="241 205 -630 -80 79 -571 -570 137 442 -402 -51 52 -122 120"/>
    </vehicle>
    <vehicle id="8" type="vtype1" depart="0" color="1,0,0" speedFactor="100">
        <route edges="-100 -99 102 -2 -1 -0 3 -11 -10 -9 -8 -7 -6 5 426"/>
    </vehicle>
    <vehicle id="80" type="vtype1" depart="0" color="1,0,0" speedFactor="100">
        <route edges="-436 242 243 244 245 325 -90 89 92 -427 428 -125 -124 123 -123 124"/>
    </vehicle>
    <vehicle id="81" type="vtype1" depart="0" color="1,0,0" speedFactor="100">
        <route edges="124 125 -428 427 -359 -131 -73 75 -104 103 -141 -140 139 391 -593"/>
    </vehicle>
    <vehicle id="82" type="vtype1" depart="0" color="1,0,0" speedFactor="100">
        <route edges="142 -259 -258 257 -225 222 223 224 374 375 -446 443 69 428 615"/>
    </vehicle>
    <vehicle id="83" type="vtype1" depart="0" color="1,0,0" speedFactor="100">
        <route edges="-91 90 -325 326 208 401 406 429 -19 23 87 -159 -55 -54 -53 56 569 570 571 -79"/>
    </vehicle>
    <vehicle id="85" type="vtype1" depart="0" color="1,0,0" speedFactor="100">
        <route edges="-158 -155 156 297 -91 90 -325 -245 245 325 -90 89"/>
    </vehicle>
    <vehicle id="86" type="vtype1" depart="0" color="1,0,0" speedFactor="100">
        <route edges="-133 132 -249 250 649 669"/>
    </vehicle>
    <vehicle id="87" type="vtype1" depart="0" color="1,0,0" speedFactor="100">
        <route edges="241 205 -630 -80 -277 -265 262"/>
    </vehicle>
    <vehicle id="9" type="vtype1" depart="0" color="1,0,0" speedFactor="100">
        <route edges="-80 79 -571 -570 -569 -56 53 54 55 159 -87 -23 19 20 25 210 -14 13 -375 -374 -224 -223 -222 225 -257 -18 -17 15"/>
    </vehicle>
    <vehicle id="90" type="vtype1" depart="0" color="1,0,0" speedFactor="100">
        <route edges="-255 -163 162 -157 -38 39 118 143 -477 -298 300 436 -179 -148 145 187 -150 149 160 -281 282 -370 368 456"/>
    </vehicle>
    <vehicle id="91" type="vtype1" depart="0" color="1,0,0" speedFactor="100">
        <route edges="-456 -368 -64 -63 -62 -61 -60 57 -264 263 -440 -137 -569 -56 52 -122 121 -67 66 -460 458 -151 154 -196 -29 30 -268 -234 -184 186"/>
    </vehicle>
    <vehicle id="92" type="vtype1" depart="0" color="1,0,0" speedFactor="100">
        <route edges="399 -153 151 -458 460 -66 67 -121 122 -52 56 569 570 571 -79"/>
    </vehicle>
    <vehicle id="93" type="vtype1" depart="0" color="1,0,0" speedFactor="100">
        <route edges="-324 -520 -94 -44 322 -117 119 204 646 -164"/>
    </vehicle>
    <vehicle id="94" type="vtype1" depart="0" color="1,0,0" speedFactor="100">
        <route edges="558 -212 -176 175 464 679 430 322 -117 118 144"/>
    </vehicle>
    <vehicle id="97" type="vtype1" depart="0" color="1,0,0" speedFactor="100">
        <route edges="79 -571 -570 -569 -56 53 54 55 159 -87 -23 19 20 25 210 -14 13 -375 -374 -224 -223 -222 225 -257 -18 -17 15"/>
    </vehicle>
    <vehicle id="99" type="vtype1" depart="0" color="1,0,0" speedFactor="100">
        <route edges="418 -199 -198 -197 193 194 195 -178 -177 685 684 6 7 8 9 10 11 -390"/>
    </vehicle>
</routes>