<?xml version="1.0"?>

<!--
// Copyright (C) 2011 Christoph Sommer <sommer@ccs-labs.org>
//
// Documentation for these modules is at http://veins.car2x.org/
//
// SPDX-License-Identifier: (GPL-2.0-or-later OR CC-BY-SA-4.0)
//
// This program is free software; you can redistribute it and/or modify
// it under the terms of the GNU General Public License as published by
// the Free Software Foundation; either version 2 of the License, or
// (at your option) any later version.
//
// This program is distributed in the hope that it will be useful,
// but WITHOUT ANY WARRANTY; without even the implied warranty of
// MERCHANTABILITY or FITNESS FOR A PARTICULAR PURPOSE.  See the
// GNU General Public License for more details.
//
// You should have received a copy of the GNU General Public License
// along with this program; if not, write to the Free Software
// Foundation, Inc., 59 Temple Place, Suite 330, Boston, MA  02111-1307  USA
//
// -
//
// At your option, you can also redistribute and/or modify this file
// under a
// Creative Commons Attribution-ShareAlike 4.0 International License.
//
// You should have received a copy of the license along with this
// work.  If not, see <http://creativecommons.org/licenses/by-sa/4.0/>.
-->

<!--
194 Cars leaving the Computer Science Building and campus of the University of Erlangen-Nuremberg
-->

<routes>
   <vType id="vtype0" accel="2.6" decel="4.5" sigma="0.5" length="2.5" minGap="2.5" maxSpeed="14" color="1,1,0"/>
   <!-- <route id="route0" edges="-39539626 -5445204#2 -5445204#1 113939244#2 -126606716 23339459 30405358#1 85355912 85355911#0 85355911#1 30405356 5931612 30350450#0 30350450#1 30350450#2 4006702#0 4006702#1 4900043 4900041#1"/>
   <flow id="flow0" type="vtype0" route="route0" begin="0" period="3" number="195"/> -->
   <vehicle id="test1" type="vtype0" depart="0" color="1,0,0" speedFactor="100">
        <route edges="-39539626 -5445204#2 -5445204#1 113939244#2 -126606716 23339459 30405358#1 85355912 85355911#0 85355911#1 30405356 5931612 30350450#0 30350450#1 30350450#2 4006702#0 4006702#1 4900043 4900041#1"/>
   </vehicle>
   <vehicle id="test2" type="vtype0" depart="0" color="1,0,0" speedFactor="100">
        <route edges="-39539626 -5445204#2 -5445204#1 113939244#2 -126606716 23339459 30405358#1 85355912 85355911#0 85355911#1 30405356 5931612 30350450#0 30350450#1 30350450#2 4006702#0 4006702#1 4900043 4900041#1"/>
   </vehicle>
   <vehicle id="test3" type="vtype0" depart="0" color="1,0,0" speedFactor="100">
        <route edges="-39539626 -5445204#2 -5445204#1 113939244#2 -126606716 23339459 30405358#1 85355912 85355911#0 85355911#1 30405356 5931612 30350450#0 30350450#1 30350450#2 4006702#0 4006702#1 4900043 4900041#1"/>
   </vehicle>
   <vehicle id="test4" type="vtype0" depart="0" color="1,0,0" speedFactor="100">
        <route edges="-39539626 -5445204#2 -5445204#1 113939244#2 -126606716 23339459 30405358#1 85355912 85355911#0 85355911#1 30405356 5931612 30350450#0 30350450#1 30350450#2 4006702#0 4006702#1 4900043 4900041#1"/>
   </vehicle>
   <vehicle id="test5" type="vtype0" depart="0" color="1,0,0" speedFactor="100">
        <route edges="-39539626 -5445204#2 -5445204#1 113939244#2 -126606716 23339459 30405358#1 85355912 85355911#0 85355911#1 30405356 5931612 30350450#0 30350450#1 30350450#2 4006702#0 4006702#1 4900043 4900041#1"/>
   </vehicle>
   <vehicle id="test6" type="vtype0" depart="0" color="1,0,0" speedFactor="100">
        <route edges="-39539626 -5445204#2 -5445204#1 113939244#2 -126606716 23339459 30405358#1 85355912 85355911#0 85355911#1 30405356 5931612 30350450#0 30350450#1 30350450#2 4006702#0 4006702#1 4900043 4900041#1"/>
   </vehicle>
   <vehicle id="test7" type="vtype0" depart="0" color="1,0,0" speedFactor="100">
        <route edges="-39539626 -5445204#2 -5445204#1 113939244#2 -126606716 23339459 30405358#1 85355912 85355911#0 85355911#1 30405356 5931612 30350450#0 30350450#1 30350450#2 4006702#0 4006702#1 4900043 4900041#1"/>
   </vehicle>
   <vehicle id="test8" type="vtype0" depart="0" color="1,0,0" speedFactor="100">
        <route edges="-39539626 -5445204#2 -5445204#1 113939244#2 -126606716 23339459 30405358#1 85355912 85355911#0 85355911#1 30405356 5931612 30350450#0 30350450#1 30350450#2 4006702#0 4006702#1 4900043 4900041#1"/>
   </vehicle>
   <vehicle id="test9" type="vtype0" depart="0" color="1,0,0" speedFactor="100">
        <route edges="-39539626 -5445204#2 -5445204#1 113939244#2 -126606716 23339459 30405358#1 85355912 85355911#0 85355911#1 30405356 5931612 30350450#0 30350450#1 30350450#2 4006702#0 4006702#1 4900043 4900041#1"/>
   </vehicle>
   <vehicle id="test10" type="vtype0" depart="0" color="1,0,0" speedFactor="100">
        <route edges="-39539626 -5445204#2 -5445204#1 113939244#2 -126606716 23339459 30405358#1 85355912 85355911#0 85355911#1 30405356 5931612 30350450#0 30350450#1 30350450#2 4006702#0 4006702#1 4900043 4900041#1"/>
   </vehicle>
   <vehicle id="test11" type="vtype0" depart="0" color="1,0,0" speedFactor="100">
        <route edges="-39539626 -5445204#2 -5445204#1 113939244#2 -126606716 23339459 30405358#1 85355912 85355911#0 85355911#1 30405356 5931612 30350450#0 30350450#1 30350450#2 4006702#0 4006702#1 4900043 4900041#1"/>
   </vehicle>
   <vehicle id="test12" type="vtype0" depart="0" color="1,0,0" speedFactor="100">
        <route edges="-39539626 -5445204#2 -5445204#1 113939244#2 -126606716 23339459 30405358#1 85355912 85355911#0 85355911#1 30405356 5931612 30350450#0 30350450#1 30350450#2 4006702#0 4006702#1 4900043 4900041#1"/>
   </vehicle>
   <vehicle id="test13" type="vtype0" depart="0" color="1,0,0" speedFactor="100">
        <route edges="-39539626 -5445204#2 -5445204#1 113939244#2 -126606716 23339459 30405358#1 85355912 85355911#0 85355911#1 30405356 5931612 30350450#0 30350450#1 30350450#2 4006702#0 4006702#1 4900043 4900041#1"/>
   </vehicle>
   <vehicle id="test14" type="vtype0" depart="0" color="1,0,0" speedFactor="100">
        <route edges="-39539626 -5445204#2 -5445204#1 113939244#2 -126606716 23339459 30405358#1 85355912 85355911#0 85355911#1 30405356 5931612 30350450#0 30350450#1 30350450#2 4006702#0 4006702#1 4900043 4900041#1"/>
   </vehicle>
   <vehicle id="test15" type="vtype0" depart="0" color="1,0,0" speedFactor="100">
        <route edges="-39539626 -5445204#2 -5445204#1 113939244#2 -126606716 23339459 30405358#1 85355912 85355911#0 85355911#1 30405356 5931612 30350450#0 30350450#1 30350450#2 4006702#0 4006702#1 4900043 4900041#1"/>
   </vehicle>
   <vehicle id="test16" type="vtype0" depart="0" color="1,0,0" speedFactor="100">
        <route edges="-39539626 -5445204#2 -5445204#1 113939244#2 -126606716 23339459 30405358#1 85355912 85355911#0 85355911#1 30405356 5931612 30350450#0 30350450#1 30350450#2 4006702#0 4006702#1 4900043 4900041#1"/>
   </vehicle>
   <vehicle id="test17" type="vtype0" depart="0" color="1,0,0" speedFactor="100">
        <route edges="-39539626 -5445204#2 -5445204#1 113939244#2 -126606716 23339459 30405358#1 85355912 85355911#0 85355911#1 30405356 5931612 30350450#0 30350450#1 30350450#2 4006702#0 4006702#1 4900043 4900041#1"/>
   </vehicle>
   <vehicle id="test18" type="vtype0" depart="0" color="1,0,0" speedFactor="100">
        <route edges="-39539626 -5445204#2 -5445204#1 113939244#2 -126606716 23339459 30405358#1 85355912 85355911#0 85355911#1 30405356 5931612 30350450#0 30350450#1 30350450#2 4006702#0 4006702#1 4900043 4900041#1"/>
   </vehicle>
   <vehicle id="test19" type="vtype0" depart="0" color="1,0,0" speedFactor="100">
        <route edges="-39539626 -5445204#2 -5445204#1 113939244#2 -126606716 23339459 30405358#1 85355912 85355911#0 85355911#1 30405356 5931612 30350450#0 30350450#1 30350450#2 4006702#0 4006702#1 4900043 4900041#1"/>
   </vehicle>
   <vehicle id="test20" type="vtype0" depart="0" color="1,0,0" speedFactor="100">
        <route edges="-39539626 -5445204#2 -5445204#1 113939244#2 -126606716 23339459 30405358#1 85355912 85355911#0 85355911#1 30405356 5931612 30350450#0 30350450#1 30350450#2 4006702#0 4006702#1 4900043 4900041#1"/>
   </vehicle>
   <vehicle id="test21" type="vtype0" depart="0" color="1,0,0" speedFactor="100">
        <route edges="-4099270#1 3998615#3 3998645#2 30350450#1 -3998643#2 -3998643#1 -3998643#0 -3998612#1"/>
   </vehicle>
   <vehicle id="test22" type="vtype0" depart="0" color="1,0,0" speedFactor="100">
        <route edges="-4099270#1 3998615#3 3998645#2 30350450#1 -3998643#2 -3998643#1 -3998643#0 -3998612#1"/>
   </vehicle>
   <vehicle id="test23" type="vtype0" depart="0" color="1,0,0" speedFactor="100">
        <route edges="-4099270#1 3998615#3 3998645#2 30350450#1 -3998643#2 -3998643#1 -3998643#0 -3998612#1"/>
   </vehicle>
   <vehicle id="test24" type="vtype0" depart="0" color="1,0,0" speedFactor="100">
        <route edges="-4099270#1 3998615#3 3998645#2 30350450#1 -3998643#2 -3998643#1 -3998643#0 -3998612#1"/>
   </vehicle>
   <vehicle id="test25" type="vtype0" depart="0" color="1,0,0" speedFactor="100">
        <route edges="-4099270#1 3998615#3 3998645#2 30350450#1 -3998643#2 -3998643#1 -3998643#0 -3998612#1"/>
   </vehicle>
   <vehicle id="test26" type="vtype0" depart="0" color="1,0,0" speedFactor="100">
        <route edges="-4099270#1 3998615#3 3998645#2 30350450#1 -3998643#2 -3998643#1 -3998643#0 -3998612#1"/>
   </vehicle>
   <vehicle id="test27" type="vtype0" depart="0" color="1,0,0" speedFactor="100">
        <route edges="-4099270#1 3998615#3 3998645#2 30350450#1 -3998643#2 -3998643#1 -3998643#0 -3998612#1"/>
   </vehicle>
   <vehicle id="test28" type="vtype0" depart="0" color="1,0,0" speedFactor="100">
        <route edges="-4099270#1 3998615#3 3998645#2 30350450#1 -3998643#2 -3998643#1 -3998643#0 -3998612#1"/>
   </vehicle>
   <vehicle id="test29" type="vtype0" depart="0" color="1,0,0" speedFactor="100">
        <route edges="-4099270#1 3998615#3 3998645#2 30350450#1 -3998643#2 -3998643#1 -3998643#0 -3998612#1"/>
   </vehicle>
   <vehicle id="test30" type="vtype0" depart="0" color="1,0,0" speedFactor="100">
        <route edges="-4099270#1 3998615#3 3998645#2 30350450#1 -3998643#2 -3998643#1 -3998643#0 -3998612#1"/>
   </vehicle>
   <vehicle id="test31" type="vtype0" depart="0" color="1,0,0" speedFactor="100">
        <route edges="-4099270#1 3998615#3 3998645#2 30350450#1 -3998643#2 -3998643#1 -3998643#0 -3998612#1"/>
   </vehicle>
   <vehicle id="test32" type="vtype0" depart="0" color="1,0,0" speedFactor="100">
        <route edges="-4099270#1 3998615#3 3998645#2 30350450#1 -3998643#2 -3998643#1 -3998643#0 -3998612#1"/>
   </vehicle>
   <vehicle id="test33" type="vtype0" depart="0" color="1,0,0" speedFactor="100">
        <route edges="-4099270#1 3998615#3 3998645#2 30350450#1 -3998643#2 -3998643#1 -3998643#0 -3998612#1"/>
   </vehicle>
   <vehicle id="test34" type="vtype0" depart="0" color="1,0,0" speedFactor="100">
        <route edges="-4099270#1 3998615#3 3998645#2 30350450#1 -3998643#2 -3998643#1 -3998643#0 -3998612#1"/>
   </vehicle>
   <vehicle id="test35" type="vtype0" depart="0" color="1,0,0" speedFactor="100">
        <route edges="-4099270#1 3998615#3 3998645#2 30350450#1 -3998643#2 -3998643#1 -3998643#0 -3998612#1"/>
   </vehicle>
   <vehicle id="test36" type="vtype0" depart="0" color="1,0,0" speedFactor="100">
        <route edges="-4099270#1 3998615#3 3998645#2 30350450#1 -3998643#2 -3998643#1 -3998643#0 -3998612#1"/>
   </vehicle>
   <vehicle id="test37" type="vtype0" depart="0" color="1,0,0" speedFactor="100">
        <route edges="-4099270#1 3998615#3 3998645#2 30350450#1 -3998643#2 -3998643#1 -3998643#0 -3998612#1"/>
   </vehicle>
   <vehicle id="test38" type="vtype0" depart="0" color="1,0,0" speedFactor="100">
        <route edges="-4099270#1 3998615#3 3998645#2 30350450#1 -3998643#2 -3998643#1 -3998643#0 -3998612#1"/>
   </vehicle>
   <vehicle id="test39" type="vtype0" depart="0" color="1,0,0" speedFactor="100">
        <route edges="-4099270#1 3998615#3 3998645#2 30350450#1 -3998643#2 -3998643#1 -3998643#0 -3998612#1"/>
   </vehicle>
   <vehicle id="test40" type="vtype0" depart="0" color="1,0,0" speedFactor="100">
        <route edges="-4099270#1 3998615#3 3998645#2 30350450#1 -3998643#2 -3998643#1 -3998643#0 -3998612#1"/>
   </vehicle>
   <vehicle id="test41" type="vtype0" depart="0" color="1,0,0" speedFactor="100">
        <route edges="4006703#0 4006703#1 28269598 -4006702#2 -4006702#1 -4006702#0 4319352#1"/>
   </vehicle>
   <vehicle id="test42" type="vtype0" depart="0" color="1,0,0" speedFactor="100">
        <route edges="4006703#0 4006703#1 28269598 -4006702#2 -4006702#1 -4006702#0 4319352#1"/>
   </vehicle>
   <vehicle id="test43" type="vtype0" depart="0" color="1,0,0" speedFactor="100">
        <route edges="4006703#0 4006703#1 28269598 -4006702#2 -4006702#1 -4006702#0 4319352#1"/>
   </vehicle>
   <vehicle id="test44" type="vtype0" depart="0" color="1,0,0" speedFactor="100">
        <route edges="4006703#0 4006703#1 28269598 -4006702#2 -4006702#1 -4006702#0 4319352#1"/>
   </vehicle>
   <vehicle id="test45" type="vtype0" depart="0" color="1,0,0" speedFactor="100">
        <route edges="4006703#0 4006703#1 28269598 -4006702#2 -4006702#1 -4006702#0 4319352#1"/>
   </vehicle>
   <vehicle id="test46" type="vtype0" depart="0" color="1,0,0" speedFactor="100">
        <route edges="4006703#0 4006703#1 28269598 -4006702#2 -4006702#1 -4006702#0 4319352#1"/>
   </vehicle>
   <vehicle id="test47" type="vtype0" depart="0" color="1,0,0" speedFactor="100">
        <route edges="4006703#0 4006703#1 28269598 -4006702#2 -4006702#1 -4006702#0 4319352#1"/>
   </vehicle>
   <vehicle id="test48" type="vtype0" depart="0" color="1,0,0" speedFactor="100">
        <route edges="4006703#0 4006703#1 28269598 -4006702#2 -4006702#1 -4006702#0 4319352#1"/>
   </vehicle>
   <vehicle id="test49" type="vtype0" depart="0" color="1,0,0" speedFactor="100">
        <route edges="4006703#0 4006703#1 28269598 -4006702#2 -4006702#1 -4006702#0 4319352#1"/>
   </vehicle>
   <vehicle id="test50" type="vtype0" depart="0" color="1,0,0" speedFactor="100">
        <route edges="4006703#0 4006703#1 28269598 -4006702#2 -4006702#1 -4006702#0 4319352#1"/>
   </vehicle>
   <vehicle id="test51" type="vtype0" depart="0" color="1,0,0" speedFactor="100">
        <route edges="4006703#0 4006703#1 28269598 -4006702#2 -4006702#1 -4006702#0 4319352#1"/>
   </vehicle>
   <vehicle id="test52" type="vtype0" depart="0" color="1,0,0" speedFactor="100">
        <route edges="4006703#0 4006703#1 28269598 -4006702#2 -4006702#1 -4006702#0 4319352#1"/>
   </vehicle>
   <vehicle id="test53" type="vtype0" depart="0" color="1,0,0" speedFactor="100">
        <route edges="4006703#0 4006703#1 28269598 -4006702#2 -4006702#1 -4006702#0 4319352#1"/>
   </vehicle>
   <vehicle id="test54" type="vtype0" depart="0" color="1,0,0" speedFactor="100">
        <route edges="4006703#0 4006703#1 28269598 -4006702#2 -4006702#1 -4006702#0 4319352#1"/>
   </vehicle>
   <vehicle id="test55" type="vtype0" depart="0" color="1,0,0" speedFactor="100">
        <route edges="4006703#0 4006703#1 28269598 -4006702#2 -4006702#1 -4006702#0 4319352#1"/>
   </vehicle>
   <vehicle id="test56" type="vtype0" depart="0" color="1,0,0" speedFactor="100">
        <route edges="4006703#0 4006703#1 28269598 -4006702#2 -4006702#1 -4006702#0 4319352#1"/>
   </vehicle>
   <vehicle id="test57" type="vtype0" depart="0" color="1,0,0" speedFactor="100">
        <route edges="4006703#0 4006703#1 28269598 -4006702#2 -4006702#1 -4006702#0 4319352#1"/>
   </vehicle>
   <vehicle id="test58" type="vtype0" depart="0" color="1,0,0" speedFactor="100">
        <route edges="4006703#0 4006703#1 28269598 -4006702#2 -4006702#1 -4006702#0 4319352#1"/>
   </vehicle>
   <vehicle id="test59" type="vtype0" depart="0" color="1,0,0" speedFactor="100">
        <route edges="4006703#0 4006703#1 28269598 -4006702#2 -4006702#1 -4006702#0 4319352#1"/>
   </vehicle>
   <vehicle id="test60" type="vtype0" depart="0" color="1,0,0" speedFactor="100">
        <route edges="4006703#0 4006703#1 28269598 -4006702#2 -4006702#1 -4006702#0 4319352#1"/>
   </vehicle>
   <vehicle id="test61" type="vtype0" depart="0" color="1,0,0" speedFactor="100">
        <route edges="10573414#0 10573414#1 3013106#0 3013106#1 3013106#2 4319353"/>
   </vehicle>
   <vehicle id="test62" type="vtype0" depart="0" color="1,0,0" speedFactor="100">
        <route edges="10573414#0 10573414#1 3013106#0 3013106#1 3013106#2 4319353"/>
   </vehicle>
   <vehicle id="test63" type="vtype0" depart="0" color="1,0,0" speedFactor="100">
        <route edges="10573414#0 10573414#1 3013106#0 3013106#1 3013106#2 4319353"/>
   </vehicle>
   <vehicle id="test64" type="vtype0" depart="0" color="1,0,0" speedFactor="100">
        <route edges="10573414#0 10573414#1 3013106#0 3013106#1 3013106#2 4319353"/>
   </vehicle>
   <vehicle id="test65" type="vtype0" depart="0" color="1,0,0" speedFactor="100">
        <route edges="10573414#0 10573414#1 3013106#0 3013106#1 3013106#2 4319353"/>
   </vehicle>
   <vehicle id="test66" type="vtype0" depart="0" color="1,0,0" speedFactor="100">
        <route edges="10573414#0 10573414#1 3013106#0 3013106#1 3013106#2 4319353"/>
   </vehicle>
   <vehicle id="test67" type="vtype0" depart="0" color="1,0,0" speedFactor="100">
        <route edges="10573414#0 10573414#1 3013106#0 3013106#1 3013106#2 4319353"/>
   </vehicle>
   <vehicle id="test68" type="vtype0" depart="0" color="1,0,0" speedFactor="100">
        <route edges="10573414#0 10573414#1 3013106#0 3013106#1 3013106#2 4319353"/>
   </vehicle>
   <vehicle id="test69" type="vtype0" depart="0" color="1,0,0" speedFactor="100">
        <route edges="10573414#0 10573414#1 3013106#0 3013106#1 3013106#2 4319353"/>
   </vehicle>
   <vehicle id="test70" type="vtype0" depart="0" color="1,0,0" speedFactor="100">
        <route edges="10573414#0 10573414#1 3013106#0 3013106#1 3013106#2 4319353"/>
   </vehicle>
   <vehicle id="test71" type="vtype0" depart="0" color="1,0,0" speedFactor="100">
        <route edges="10573414#0 10573414#1 3013106#0 3013106#1 3013106#2 4319353"/>
   </vehicle>
   <vehicle id="test72" type="vtype0" depart="0" color="1,0,0" speedFactor="100">
        <route edges="10573414#0 10573414#1 3013106#0 3013106#1 3013106#2 4319353"/>
   </vehicle>
   <vehicle id="test73" type="vtype0" depart="0" color="1,0,0" speedFactor="100">
        <route edges="10573414#0 10573414#1 3013106#0 3013106#1 3013106#2 4319353"/>
   </vehicle>
   <vehicle id="test74" type="vtype0" depart="0" color="1,0,0" speedFactor="100">
        <route edges="10573414#0 10573414#1 3013106#0 3013106#1 3013106#2 4319353"/>
   </vehicle>
   <vehicle id="test75" type="vtype0" depart="0" color="1,0,0" speedFactor="100">
        <route edges="10573414#0 10573414#1 3013106#0 3013106#1 3013106#2 4319353"/>
   </vehicle>
   <vehicle id="test76" type="vtype0" depart="0" color="1,0,0" speedFactor="100">
        <route edges="10573414#0 10573414#1 3013106#0 3013106#1 3013106#2 4319353"/>
   </vehicle>
   <vehicle id="test77" type="vtype0" depart="0" color="1,0,0" speedFactor="100">
        <route edges="10573414#0 10573414#1 3013106#0 3013106#1 3013106#2 4319353"/>
   </vehicle>
   <vehicle id="test78" type="vtype0" depart="0" color="1,0,0" speedFactor="100">
        <route edges="10573414#0 10573414#1 3013106#0 3013106#1 3013106#2 4319353"/>
   </vehicle>
   <vehicle id="test79" type="vtype0" depart="0" color="1,0,0" speedFactor="100">
        <route edges="10573414#0 10573414#1 3013106#0 3013106#1 3013106#2 4319353"/>
   </vehicle>
   <vehicle id="test80" type="vtype0" depart="0" color="1,0,0" speedFactor="100">
        <route edges="10573414#0 10573414#1 3013106#0 3013106#1 3013106#2 4319353"/>
   </vehicle>
   <vehicle id="test81" type="vtype0" depart="0" color="1,0,0" speedFactor="100">
        <route edges="-10425131 -10425130 4006688#2 4006688#3 4006688#4 -8403001 -4006674#4 -4006674#3 -4006674#2 -4006674#1 -4006674#0"/>
   </vehicle>
   <vehicle id="test82" type="vtype0" depart="0" color="1,0,0" speedFactor="100">
        <route edges="-10425131 -10425130 4006688#2 4006688#3 4006688#4 -8403001 -4006674#4 -4006674#3 -4006674#2 -4006674#1 -4006674#0"/>
   </vehicle>
   <vehicle id="test83" type="vtype0" depart="0" color="1,0,0" speedFactor="100">
        <route edges="-10425131 -10425130 4006688#2 4006688#3 4006688#4 -8403001 -4006674#4 -4006674#3 -4006674#2 -4006674#1 -4006674#0"/>
   </vehicle>
   <vehicle id="test84" type="vtype0" depart="0" color="1,0,0" speedFactor="100">
        <route edges="-10425131 -10425130 4006688#2 4006688#3 4006688#4 -8403001 -4006674#4 -4006674#3 -4006674#2 -4006674#1 -4006674#0"/>
   </vehicle>
   <vehicle id="test85" type="vtype0" depart="0" color="1,0,0" speedFactor="100">
        <route edges="-10425131 -10425130 4006688#2 4006688#3 4006688#4 -8403001 -4006674#4 -4006674#3 -4006674#2 -4006674#1 -4006674#0"/>
   </vehicle>
   <vehicle id="test86" type="vtype0" depart="0" color="1,0,0" speedFactor="100">
        <route edges="-10425131 -10425130 4006688#2 4006688#3 4006688#4 -8403001 -4006674#4 -4006674#3 -4006674#2 -4006674#1 -4006674#0"/>
   </vehicle>
   <vehicle id="test87" type="vtype0" depart="0" color="1,0,0" speedFactor="100">
        <route edges="-10425131 -10425130 4006688#2 4006688#3 4006688#4 -8403001 -4006674#4 -4006674#3 -4006674#2 -4006674#1 -4006674#0"/>
   </vehicle>
   <vehicle id="test88" type="vtype0" depart="0" color="1,0,0" speedFactor="100">
        <route edges="-10425131 -10425130 4006688#2 4006688#3 4006688#4 -8403001 -4006674#4 -4006674#3 -4006674#2 -4006674#1 -4006674#0"/>
   </vehicle>
   <vehicle id="test89" type="vtype0" depart="0" color="1,0,0" speedFactor="100">
        <route edges="-10425131 -10425130 4006688#2 4006688#3 4006688#4 -8403001 -4006674#4 -4006674#3 -4006674#2 -4006674#1 -4006674#0"/>
   </vehicle>
   <vehicle id="test90" type="vtype0" depart="0" color="1,0,0" speedFactor="100">
        <route edges="-10425131 -10425130 4006688#2 4006688#3 4006688#4 -8403001 -4006674#4 -4006674#3 -4006674#2 -4006674#1 -4006674#0"/>
   </vehicle>
   <vehicle id="test91" type="vtype0" depart="0" color="1,0,0" speedFactor="100">
        <route edges="-10425131 -10425130 4006688#2 4006688#3 4006688#4 -8403001 -4006674#4 -4006674#3 -4006674#2 -4006674#1 -4006674#0"/>
   </vehicle>
   <vehicle id="test92" type="vtype0" depart="0" color="1,0,0" speedFactor="100">
        <route edges="-10425131 -10425130 4006688#2 4006688#3 4006688#4 -8403001 -4006674#4 -4006674#3 -4006674#2 -4006674#1 -4006674#0"/>
   </vehicle>
   <vehicle id="test93" type="vtype0" depart="0" color="1,0,0" speedFactor="100">
        <route edges="-10425131 -10425130 4006688#2 4006688#3 4006688#4 -8403001 -4006674#4 -4006674#3 -4006674#2 -4006674#1 -4006674#0"/>
   </vehicle>
   <vehicle id="test94" type="vtype0" depart="0" color="1,0,0" speedFactor="100">
        <route edges="-10425131 -10425130 4006688#2 4006688#3 4006688#4 -8403001 -4006674#4 -4006674#3 -4006674#2 -4006674#1 -4006674#0"/>
   </vehicle>
   <vehicle id="test95" type="vtype0" depart="0" color="1,0,0" speedFactor="100">
        <route edges="-10425131 -10425130 4006688#2 4006688#3 4006688#4 -8403001 -4006674#4 -4006674#3 -4006674#2 -4006674#1 -4006674#0"/>
   </vehicle>
   <vehicle id="test96" type="vtype0" depart="0" color="1,0,0" speedFactor="100">
        <route edges="-10425131 -10425130 4006688#2 4006688#3 4006688#4 -8403001 -4006674#4 -4006674#3 -4006674#2 -4006674#1 -4006674#0"/>
   </vehicle>
   <vehicle id="test97" type="vtype0" depart="0" color="1,0,0" speedFactor="100">
        <route edges="-10425131 -10425130 4006688#2 4006688#3 4006688#4 -8403001 -4006674#4 -4006674#3 -4006674#2 -4006674#1 -4006674#0"/>
   </vehicle>
   <vehicle id="test98" type="vtype0" depart="0" color="1,0,0" speedFactor="100">
        <route edges="-10425131 -10425130 4006688#2 4006688#3 4006688#4 -8403001 -4006674#4 -4006674#3 -4006674#2 -4006674#1 -4006674#0"/>
   </vehicle>
   <vehicle id="test99" type="vtype0" depart="0" color="1,0,0" speedFactor="100">
        <route edges="-10425131 -10425130 4006688#2 4006688#3 4006688#4 -8403001 -4006674#4 -4006674#3 -4006674#2 -4006674#1 -4006674#0"/>
   </vehicle>
   <vehicle id="test100" type="vtype0" depart="0" color="1,0,0" speedFactor="100">
        <route edges="-10425131 -10425130 4006688#2 4006688#3 4006688#4 -8403001 -4006674#4 -4006674#3 -4006674#2 -4006674#1 -4006674#0"/>
   </vehicle>
</routes>
