<?xml version="1.0" encoding="UTF-8"?>

<!-- generated on 05/26/22 09:50:23 by Eclipse SUMO netedit Version 1.8.0
<configuration xmlns:xsi="http://www.w3.org/2001/XMLSchema-instance" xsi:noNamespaceSchemaLocation="http://sumo.dlr.de/xsd/netconvertConfiguration.xsd">

    <input>
        <sumo-net-file value="F:\Project\Shenzhen%20Traj\RoadMapMatch\xml\test.net.xml"/>
    </input>

    <output>
        <output-file value="F:\Project\Shenzhen%20Traj\RoadMapMatch\xml\test.net.xml"/>
    </output>

    <processing>
        <geometry.min-radius.fix.railways value="false"/>
        <geometry.max-grade.fix value="false"/>
        <offset.disable-normalization value="true"/>
        <lefthand value="false"/>
    </processing>

    <junctions>
        <no-turnarounds value="true"/>
        <junctions.corner-detail value="5"/>
        <junctions.limit-turn-speed value="5.5"/>
        <rectangular-lane-cut value="false"/>
    </junctions>

    <pedestrian>
        <walkingareas value="false"/>
    </pedestrian>

    <report>
        <aggregate-warnings value="5"/>
    </report>

</configuration>
-->

<net version="1.6" junctionCornerDetail="5" limitTurnSpeed="5.50" xmlns:xsi="http://www.w3.org/2001/XMLSchema-instance" xsi:noNamespaceSchemaLocation="http://sumo.dlr.de/xsd/net_file.xsd">

    <location netOffset="-193755.26,-2492537.26" convBoundary="0.00,0.00,8974.52,6896.51" origBoundary="113.832744,22.496145,114.336942,22.701195" projParameter="+proj=utm +zone=50 +ellps=WGS84 +datum=WGS84 +units=m +no_defs"/>

    <edge id=":0_0" function="internal">
        <lane id=":0_0_0" index="0" speed="2.78" length="10.53" shape="6697.99,5916.18 6694.90,5915.83 6692.29,5916.20 6690.18,5917.28 6688.55,5919.06"/>
    </edge>
    <edge id=":0_1" function="internal">
        <lane id=":0_1_0" index="0" speed="2.78" length="17.96" shape="6697.99,5916.18 6694.09,5914.70 6690.07,5912.13 6686.45,5908.99 6683.72,5905.76"/>
    </edge>
    <edge id=":0_2" function="internal">
        <lane id=":0_2_0" index="0" speed="2.78" length="16.50" shape="6697.99,5916.18 6694.05,5914.62 6691.91,5911.95 6691.55,5908.19 6692.99,5903.33"/>
    </edge>
    <edge id=":0_3" function="internal">
        <lane id=":0_3_0" index="0" speed="2.78" length="4.67" shape="6697.99,5916.18 6696.98,5915.15 6696.75,5914.28 6697.31,5913.58 6698.65,5913.04"/>
    </edge>
    <edge id=":0_4" function="internal">
        <lane id=":0_4_0" index="0" speed="2.78" length="10.57" shape="6695.93,5904.60 6694.93,5907.83 6695.05,5910.32 6696.29,5912.06 6698.65,5913.04"/>
    </edge>
    <edge id=":0_5" function="internal">
        <lane id=":0_5_0" index="0" speed="2.78" length="16.26" shape="6695.93,5904.60 6694.32,5908.20 6692.52,5911.98 6690.57,5915.68 6688.55,5919.06"/>
    </edge>
    <edge id=":0_6" function="internal">
        <lane id=":0_6_0" index="0" speed="2.78" length="6.98" shape="6695.93,5904.60 6693.28,5909.06 6691.72,5909.95"/>
    </edge>
    <edge id=":0_7" function="internal">
        <lane id=":0_7_0" index="0" speed="2.78" length="2.34" shape="6695.93,5904.60 6694.72,5905.38 6693.83,5905.43"/>
    </edge>
    <edge id=":0_16" function="internal">
        <lane id=":0_16_0" index="0" speed="2.78" length="10.14" shape="6691.72,5909.95 6690.36,5910.74 6687.17,5909.64 6683.72,5905.76"/>
    </edge>
    <edge id=":0_17" function="internal">
        <lane id=":0_17_0" index="0" speed="2.78" length="2.34" shape="6693.83,5905.43 6693.25,5904.75 6692.99,5903.33"/>
    </edge>
    <edge id=":0_8" function="internal">
        <lane id=":0_8_0" index="0" speed="2.78" length="9.29" shape="6686.37,5903.96 6688.24,5906.07 6689.97,5906.66 6691.55,5905.75 6692.99,5903.33"/>
    </edge>
    <edge id=":0_9" function="internal">
        <lane id=":0_9_0" index="0" speed="2.78" length="15.60" shape="6686.37,5903.96 6688.78,5906.98 6691.73,5909.67 6695.06,5911.77 6698.65,5913.04"/>
    </edge>
    <edge id=":0_10" function="internal">
        <lane id=":0_10_0" index="0" speed="2.78" length="16.18" shape="6686.37,5903.96 6688.80,5908.28 6689.97,5912.24 6689.89,5915.83 6688.55,5919.06"/>
    </edge>
    <edge id=":0_11" function="internal">
        <lane id=":0_11_0" index="0" speed="2.78" length="4.67" shape="6686.37,5903.96 6686.38,5905.40 6685.94,5906.18 6685.06,5906.30 6683.72,5905.76"/>
    </edge>
    <edge id=":0_12" function="internal">
        <lane id=":0_12_0" index="0" speed="2.78" length="12.43" shape="6685.86,5917.32 6686.77,5914.98 6686.72,5912.28 6685.70,5909.20 6683.72,5905.76"/>
    </edge>
    <edge id=":0_13" function="internal">
        <lane id=":0_13_0" index="0" speed="2.78" length="15.72" shape="6685.86,5917.32 6687.84,5914.01 6689.70,5910.47 6691.42,5906.86 6692.99,5903.33"/>
    </edge>
    <edge id=":0_14" function="internal">
        <lane id=":0_14_0" index="0" speed="2.78" length="5.18" shape="6685.86,5917.32 6688.15,5914.76 6689.68,5913.93"/>
    </edge>
    <edge id=":0_15" function="internal">
        <lane id=":0_15_0" index="0" speed="2.78" length="2.34" shape="6685.86,5917.32 6687.19,5916.75 6688.07,5916.85"/>
    </edge>
    <edge id=":0_18" function="internal">
        <lane id=":0_18_0" index="0" speed="2.78" length="9.22" shape="6689.68,5913.93 6691.04,5913.19 6694.54,5912.62 6698.65,5913.04"/>
    </edge>
    <edge id=":0_19" function="internal">
        <lane id=":0_19_0" index="0" speed="2.78" length="2.34" shape="6688.07,5916.85 6688.53,5917.62 6688.55,5919.06"/>
    </edge>
    <edge id=":1_0" function="internal">
        <lane id=":1_0_0" index="0" speed="2.78" length="14.43" shape="7049.62,5989.74 7035.49,5986.78"/>
    </edge>
    <edge id=":1_1" function="internal">
        <lane id=":1_1_0" index="0" speed="2.78" length="5.76" shape="7049.62,5989.74 7046.11,5988.43 7044.63,5987.06"/>
    </edge>
    <edge id=":1_2" function="internal">
        <lane id=":1_2_0" index="0" speed="2.78" length="2.34" shape="7049.62,5989.74 7048.61,5988.71 7048.38,5987.84"/>
    </edge>
    <edge id=":1_9" function="internal">
        <lane id=":1_9_0" index="0" speed="2.78" length="8.59" shape="7044.63,5987.06 7043.73,5986.22 7042.50,5983.11 7042.40,5979.09"/>
    </edge>
    <edge id=":1_10" function="internal">
        <lane id=":1_10_0" index="0" speed="2.78" length="2.34" shape="7048.38,5987.84 7048.94,5987.14 7050.28,5986.61"/>
    </edge>
    <edge id=":1_3" function="internal">
        <lane id=":1_3_0" index="0" speed="2.78" length="9.56" shape="7045.59,5979.43 7045.64,5982.15 7046.44,5984.25 7047.98,5985.74 7050.28,5986.61"/>
    </edge>
    <edge id=":1_4" function="internal">
        <lane id=":1_4_0" index="0" speed="2.78" length="14.59" shape="7045.59,5979.43 7044.59,5983.36 7042.57,5985.90 7039.54,5987.04 7035.49,5986.78"/>
    </edge>
    <edge id=":1_5" function="internal">
        <lane id=":1_5_0" index="0" speed="2.78" length="4.67" shape="7045.59,5979.43 7044.66,5980.54 7043.83,5980.85 7043.07,5980.37 7042.40,5979.09"/>
    </edge>
    <edge id=":1_6" function="internal">
        <lane id=":1_6_0" index="0" speed="2.78" length="9.04" shape="7036.15,5983.65 7038.66,5983.81 7040.54,5983.10 7041.78,5981.53 7042.40,5979.09"/>
    </edge>
    <edge id=":1_7" function="internal">
        <lane id=":1_7_0" index="0" speed="2.78" length="14.43" shape="7036.15,5983.65 7050.28,5986.61"/>
    </edge>
    <edge id=":1_8" function="internal">
        <lane id=":1_8_0" index="0" speed="2.78" length="2.34" shape="7036.15,5983.65 7037.16,5984.68 7037.39,5985.54"/>
    </edge>
    <edge id=":1_11" function="internal">
        <lane id=":1_11_0" index="0" speed="2.78" length="2.34" shape="7037.39,5985.54 7036.83,5986.24 7035.49,5986.78"/>
    </edge>
    <edge id=":10_0" function="internal">
        <lane id=":10_0_0" index="0" speed="2.78" length="1.20" shape="5597.30,6567.15 5596.96,6567.06 5596.73,6566.98 5596.50,6566.88 5596.19,6566.71"/>
    </edge>
    <edge id=":10_1" function="internal">
        <lane id=":10_1_0" index="0" speed="2.78" length="0.40" shape="5597.73,6563.90 5597.83,6563.96 5597.90,6563.99 5597.98,6564.02 5598.10,6564.05"/>
    </edge>
    <edge id=":100_0" function="internal">
        <lane id=":100_0_0" index="0" speed="2.78" length="0.89" shape="1128.76,1797.43 1128.75,1797.17 1128.72,1796.99 1128.65,1796.82 1128.51,1796.60"/>
    </edge>
    <edge id=":100_1" function="internal">
        <lane id=":100_1_0" index="0" speed="2.78" length="2.67" shape="1131.22,1794.89 1131.63,1795.57 1131.85,1796.07 1131.94,1796.61 1131.96,1797.40"/>
    </edge>
    <edge id=":101_0" function="internal">
        <lane id=":101_0_0" index="0" speed="2.78" length="9.40" shape="3644.68,2343.53 3642.08,2343.98 3640.19,2345.09 3639.03,2346.85 3638.59,2349.27"/>
    </edge>
    <edge id=":101_1" function="internal">
        <lane id=":101_1_0" index="0" speed="2.78" length="14.47" shape="3644.68,2343.53 3640.70,2343.12 3637.89,2341.53 3636.26,2338.74 3635.81,2334.76"/>
    </edge>
    <edge id=":101_2" function="internal">
        <lane id=":101_2_0" index="0" speed="2.78" length="4.67" shape="3644.68,2343.53 3643.45,2342.78 3643.02,2342.00 3643.39,2341.18 3644.55,2340.33"/>
    </edge>
    <edge id=":101_3" function="internal">
        <lane id=":101_3_0" index="0" speed="2.78" length="9.04" shape="3639.01,2334.86 3639.29,2337.34 3640.31,2339.08 3642.06,2340.08 3644.55,2340.33"/>
    </edge>
    <edge id=":101_4" function="internal">
        <lane id=":101_4_0" index="0" speed="2.78" length="14.42" shape="3639.01,2334.86 3638.59,2349.27"/>
    </edge>
    <edge id=":101_5" function="internal">
        <lane id=":101_5_0" index="0" speed="2.78" length="2.34" shape="3639.01,2334.86 3638.17,2336.03 3637.36,2336.41"/>
    </edge>
    <edge id=":101_9" function="internal">
        <lane id=":101_9_0" index="0" speed="2.78" length="2.34" shape="3637.36,2336.41 3636.57,2335.99 3635.81,2334.76"/>
    </edge>
    <edge id=":101_6" function="internal">
        <lane id=":101_6_0" index="0" speed="2.78" length="14.42" shape="3635.39,2349.17 3635.81,2334.76"/>
    </edge>
    <edge id=":101_7" function="internal">
        <lane id=":101_7_0" index="0" speed="2.78" length="5.81" shape="3635.39,2349.17 3636.05,2345.44 3637.15,2343.75"/>
    </edge>
    <edge id=":101_8" function="internal">
        <lane id=":101_8_0" index="0" speed="2.78" length="2.34" shape="3635.39,2349.17 3636.22,2348.00 3637.03,2347.62"/>
    </edge>
    <edge id=":101_10" function="internal">
        <lane id=":101_10_0" index="0" speed="2.78" length="8.49" shape="3637.15,2343.75 3637.80,2342.73 3640.63,2341.02 3644.55,2340.33"/>
    </edge>
    <edge id=":101_11" function="internal">
        <lane id=":101_11_0" index="0" speed="2.78" length="2.34" shape="3637.03,2347.62 3637.82,2348.04 3638.59,2349.27"/>
    </edge>
    <edge id=":102_0" function="internal">
        <lane id=":102_0_0" index="0" speed="2.78" length="13.95" shape="3199.86,2085.91 3196.27,2085.93 3192.88,2086.05 3189.50,2086.26 3185.93,2086.56"/>
    </edge>
    <edge id=":102_1" function="internal">
        <lane id=":102_1_0" index="0" speed="2.78" length="5.54" shape="3199.86,2085.91 3196.25,2085.35 3194.63,2084.39"/>
    </edge>
    <edge id=":102_2" function="internal">
        <lane id=":102_2_0" index="0" speed="2.78" length="2.34" shape="3199.86,2085.91 3198.66,2085.11 3198.27,2084.30"/>
    </edge>
    <edge id=":102_9" function="internal">
        <lane id=":102_9_0" index="0" speed="2.78" length="8.65" shape="3194.63,2084.39 3193.47,2083.71 3191.51,2080.99 3190.38,2077.20"/>
    </edge>
    <edge id=":102_10" function="internal">
        <lane id=":102_10_0" index="0" speed="2.78" length="2.34" shape="3198.27,2084.30 3198.67,2083.51 3199.88,2082.71"/>
    </edge>
    <edge id=":102_3" function="internal">
        <lane id=":102_3_0" index="0" speed="2.78" length="9.64" shape="3193.54,2076.68 3194.31,2079.31 3195.62,2081.19 3197.48,2082.32 3199.88,2082.71"/>
    </edge>
    <edge id=":102_4" function="internal">
        <lane id=":102_4_0" index="0" speed="2.78" length="14.46" shape="3193.54,2076.68 3193.62,2080.68 3192.38,2083.66 3189.81,2085.62 3185.93,2086.56"/>
    </edge>
    <edge id=":102_5" function="internal">
        <lane id=":102_5_0" index="0" speed="2.78" length="4.67" shape="3193.54,2076.68 3192.95,2077.99 3192.22,2078.52 3191.37,2078.25 3190.38,2077.20"/>
    </edge>
    <edge id=":102_6" function="internal">
        <lane id=":102_6_0" index="0" speed="2.78" length="9.04" shape="3185.62,2083.38 3188.05,2082.79 3189.66,2081.56 3190.44,2079.70 3190.38,2077.20"/>
    </edge>
    <edge id=":102_7" function="internal">
        <lane id=":102_7_0" index="0" speed="2.78" length="14.28" shape="3185.62,2083.38 3189.25,2083.07 3192.74,2082.86 3196.24,2082.74 3199.88,2082.71"/>
    </edge>
    <edge id=":102_8" function="internal">
        <lane id=":102_8_0" index="0" speed="2.78" length="2.34" shape="3185.62,2083.38 3186.89,2084.06 3187.37,2084.82"/>
    </edge>
    <edge id=":102_11" function="internal">
        <lane id=":102_11_0" index="0" speed="2.78" length="2.34" shape="3187.37,2084.82 3187.04,2085.65 3185.93,2086.56"/>
    </edge>
    <edge id=":103_0" function="internal">
        <lane id=":103_0_0" index="0" speed="2.78" length="10.01" shape="3706.37,1848.04 3703.46,1848.25 3701.21,1849.14 3699.63,1850.72 3698.71,1852.98"/>
    </edge>
    <edge id=":103_1" function="internal">
        <lane id=":103_1_0" index="0" speed="2.78" length="14.92" shape="3706.37,1848.04 3702.24,1847.27 3699.60,1845.36 3698.44,1842.32 3698.76,1838.13"/>
    </edge>
    <edge id=":103_2" function="internal">
        <lane id=":103_2_0" index="0" speed="2.78" length="4.67" shape="3706.37,1848.04 3705.20,1847.19 3704.84,1846.38 3705.27,1845.60 3706.50,1844.85"/>
    </edge>
    <edge id=":103_3" function="internal">
        <lane id=":103_3_0" index="0" speed="2.78" length="9.06" shape="3701.88,1838.83 3701.69,1841.37 3702.39,1843.22 3704.00,1844.38 3706.50,1844.85"/>
    </edge>
    <edge id=":103_4" function="internal">
        <lane id=":103_4_0" index="0" speed="2.78" length="14.50" shape="3701.88,1838.83 3698.71,1852.98"/>
    </edge>
    <edge id=":103_5" function="internal">
        <lane id=":103_5_0" index="0" speed="2.78" length="2.34" shape="3701.88,1838.83 3700.84,1839.82 3699.97,1840.04"/>
    </edge>
    <edge id=":103_9" function="internal">
        <lane id=":103_9_0" index="0" speed="2.78" length="2.34" shape="3699.97,1840.04 3699.28,1839.48 3698.76,1838.13"/>
    </edge>
    <edge id=":103_6" function="internal">
        <lane id=":103_6_0" index="0" speed="2.78" length="14.50" shape="3695.59,1852.28 3698.76,1838.13"/>
    </edge>
    <edge id=":103_7" function="internal">
        <lane id=":103_7_0" index="0" speed="2.78" length="5.66" shape="3695.59,1852.28 3696.93,1848.89 3698.32,1847.43"/>
    </edge>
    <edge id=":103_8" function="internal">
        <lane id=":103_8_0" index="0" speed="2.78" length="2.34" shape="3695.59,1852.28 3696.63,1851.29 3697.50,1851.07"/>
    </edge>
    <edge id=":103_10" function="internal">
        <lane id=":103_10_0" index="0" speed="2.78" length="8.86" shape="3698.32,1847.43 3699.19,1846.52 3702.38,1845.17 3706.50,1844.85"/>
    </edge>
    <edge id=":103_11" function="internal">
        <lane id=":103_11_0" index="0" speed="2.78" length="2.34" shape="3697.50,1851.07 3698.19,1851.64 3698.71,1852.98"/>
    </edge>
    <edge id=":104_0" function="internal">
        <lane id=":104_0_0" index="0" speed="2.78" length="9.67" shape="5521.10,3370.61 5520.66,3368.18 5519.47,3366.37 5517.53,3365.20 5514.83,3364.64"/>
    </edge>
    <edge id=":104_1" function="internal">
        <lane id=":104_1_0" index="0" speed="2.78" length="14.53" shape="5521.10,3370.61 5520.59,3356.09"/>
    </edge>
    <edge id=":104_2" function="internal">
        <lane id=":104_2_0" index="0" speed="2.78" length="5.65" shape="5521.10,3370.61 5521.57,3366.87 5522.51,3365.24"/>
    </edge>
    <edge id=":104_3" function="internal">
        <lane id=":104_3_0" index="0" speed="2.78" length="2.34" shape="5521.10,3370.61 5521.87,3369.40 5522.66,3368.98"/>
    </edge>
    <edge id=":104_16" function="internal">
        <lane id=":104_16_0" index="0" speed="2.78" length="8.59" shape="5522.51,3365.24 5523.17,3364.07 5525.89,3362.21 5529.73,3361.29"/>
    </edge>
    <edge id=":104_17" function="internal">
        <lane id=":104_17_0" index="0" speed="2.78" length="2.34" shape="5522.66,3368.98 5523.47,3369.37 5524.30,3370.55"/>
    </edge>
    <edge id=":104_4" function="internal">
        <lane id=":104_4_0" index="0" speed="2.78" length="9.39" shape="5530.07,3364.47 5527.50,3365.08 5525.68,3366.29 5524.62,3368.12 5524.30,3370.55"/>
    </edge>
    <edge id=":104_5" function="internal">
        <lane id=":104_5_0" index="0" speed="2.78" length="15.26" shape="5530.07,3364.47 5526.29,3364.77 5522.45,3364.89 5518.61,3364.85 5514.83,3364.64"/>
    </edge>
    <edge id=":104_6" function="internal">
        <lane id=":104_6_0" index="0" speed="2.78" length="14.61" shape="5530.07,3364.47 5526.09,3364.30 5523.19,3362.84 5521.35,3360.11 5520.59,3356.09"/>
    </edge>
    <edge id=":104_7" function="internal">
        <lane id=":104_7_0" index="0" speed="2.78" length="4.67" shape="5530.07,3364.47 5528.79,3363.80 5528.31,3363.04 5528.62,3362.21 5529.73,3361.29"/>
    </edge>
    <edge id=":104_8" function="internal">
        <lane id=":104_8_0" index="0" speed="2.78" length="9.24" shape="5523.78,3355.94 5524.27,3358.50 5525.42,3360.24 5527.24,3361.17 5529.73,3361.29"/>
    </edge>
    <edge id=":104_9" function="internal">
        <lane id=":104_9_0" index="0" speed="2.78" length="14.62" shape="5523.78,3355.94 5524.30,3370.55"/>
    </edge>
    <edge id=":104_10" function="internal">
        <lane id=":104_10_0" index="0" speed="2.78" length="6.12" shape="5523.78,3355.94 5523.40,3360.02 5522.39,3361.77"/>
    </edge>
    <edge id=":104_11" function="internal">
        <lane id=":104_11_0" index="0" speed="2.78" length="2.34" shape="5523.78,3355.94 5523.04,3357.18 5522.26,3357.61"/>
    </edge>
    <edge id=":104_18" function="internal">
        <lane id=":104_18_0" index="0" speed="2.78" length="8.57" shape="5522.39,3361.77 5521.78,3362.83 5518.92,3364.37 5514.83,3364.64"/>
    </edge>
    <edge id=":104_19" function="internal">
        <lane id=":104_19_0" index="0" speed="2.78" length="2.34" shape="5522.26,3357.61 5521.45,3357.25 5520.59,3356.09"/>
    </edge>
    <edge id=":104_12" function="internal">
        <lane id=":104_12_0" index="0" speed="2.78" length="9.05" shape="5515.07,3361.45 5517.59,3361.29 5519.35,3360.34 5520.35,3358.61 5520.59,3356.09"/>
    </edge>
    <edge id=":104_13" function="internal">
        <lane id=":104_13_0" index="0" speed="2.78" length="14.68" shape="5515.07,3361.45 5518.77,3361.66 5522.41,3361.71 5526.05,3361.58 5529.73,3361.29"/>
    </edge>
    <edge id=":104_14" function="internal">
        <lane id=":104_14_0" index="0" speed="2.78" length="14.47" shape="5515.07,3361.45 5519.05,3362.29 5521.91,3364.08 5523.66,3366.83 5524.30,3370.55"/>
    </edge>
    <edge id=":104_15" function="internal">
        <lane id=":104_15_0" index="0" speed="2.78" length="4.67" shape="5515.07,3361.45 5516.21,3362.34 5516.54,3363.17 5516.08,3363.94 5514.83,3364.64"/>
    </edge>
    <edge id=":105_0" function="internal">
        <lane id=":105_0_0" index="0" speed="2.78" length="13.80" shape="5783.42,3339.04 5779.86,3339.00 5776.52,3339.06 5773.19,3339.25 5769.64,3339.56"/>
    </edge>
    <edge id=":105_1" function="internal">
        <lane id=":105_1_0" index="0" speed="2.78" length="5.69" shape="5783.42,3339.04 5779.57,3338.40 5778.07,3337.44"/>
    </edge>
    <edge id=":105_2" function="internal">
        <lane id=":105_2_0" index="0" speed="2.78" length="2.34" shape="5783.42,3339.04 5782.24,3338.21 5781.86,3337.40"/>
    </edge>
    <edge id=":105_9" function="internal">
        <lane id=":105_9_0" index="0" speed="2.78" length="8.53" shape="5778.07,3337.44 5776.87,3336.68 5775.29,3333.88 5774.86,3330.00"/>
    </edge>
    <edge id=":105_10" function="internal">
        <lane id=":105_10_0" index="0" speed="2.78" length="2.34" shape="5781.86,3337.40 5782.28,3336.61 5783.50,3335.84"/>
    </edge>
    <edge id=":105_3" function="internal">
        <lane id=":105_3_0" index="0" speed="2.78" length="9.03" shape="5778.06,3330.10 5778.33,3332.56 5779.33,3334.34 5781.05,3335.43 5783.50,3335.84"/>
    </edge>
    <edge id=":105_4" function="internal">
        <lane id=":105_4_0" index="0" speed="2.78" length="14.05" shape="5778.06,3330.10 5777.43,3333.92 5775.82,3336.77 5773.23,3338.66 5769.64,3339.56"/>
    </edge>
    <edge id=":105_5" function="internal">
        <lane id=":105_5_0" index="0" speed="2.78" length="4.67" shape="5778.06,3330.10 5777.22,3331.28 5776.41,3331.65 5775.62,3331.23 5774.86,3330.00"/>
    </edge>
    <edge id=":105_6" function="internal">
        <lane id=":105_6_0" index="0" speed="2.78" length="9.38" shape="5769.31,3336.38 5771.67,3335.77 5773.38,3334.51 5774.45,3332.59 5774.86,3330.00"/>
    </edge>
    <edge id=":105_7" function="internal">
        <lane id=":105_7_0" index="0" speed="2.78" length="14.20" shape="5769.31,3336.38 5772.92,3336.06 5776.40,3335.87 5779.87,3335.80 5783.50,3335.84"/>
    </edge>
    <edge id=":105_8" function="internal">
        <lane id=":105_8_0" index="0" speed="2.78" length="2.34" shape="5769.31,3336.38 5770.59,3337.05 5771.07,3337.81"/>
    </edge>
    <edge id=":105_11" function="internal">
        <lane id=":105_11_0" index="0" speed="2.78" length="2.34" shape="5771.07,3337.81 5770.75,3338.64 5769.64,3339.56"/>
    </edge>
    <edge id=":106_0" function="internal">
        <lane id=":106_0_0" index="0" speed="2.78" length="13.97" shape="5066.37,3329.72 5052.41,3329.13"/>
    </edge>
    <edge id=":106_1" function="internal">
        <lane id=":106_1_0" index="0" speed="2.78" length="5.51" shape="5066.37,3329.72 5062.68,3328.89 5061.26,3327.90"/>
    </edge>
    <edge id=":106_2" function="internal">
        <lane id=":106_2_0" index="0" speed="2.78" length="2.34" shape="5066.37,3329.72 5065.23,3328.83 5064.90,3328.00"/>
    </edge>
    <edge id=":106_9" function="internal">
        <lane id=":106_9_0" index="0" speed="2.78" length="8.51" shape="5061.26,3327.90 5060.07,3327.07 5058.53,3324.25 5058.08,3320.43"/>
    </edge>
    <edge id=":106_10" function="internal">
        <lane id=":106_10_0" index="0" speed="2.78" length="2.34" shape="5064.90,3328.00 5065.36,3327.23 5066.62,3326.53"/>
    </edge>
    <edge id=":106_3" function="internal">
        <lane id=":106_3_0" index="0" speed="2.78" length="9.07" shape="5061.28,3320.49 5061.57,3322.97 5062.56,3324.81 5064.24,3325.99 5066.62,3326.53"/>
    </edge>
    <edge id=":106_4" function="internal">
        <lane id=":106_4_0" index="0" speed="2.78" length="14.07" shape="5061.28,3320.49 5060.66,3324.30 5058.98,3327.00 5056.23,3328.61 5052.41,3329.13"/>
    </edge>
    <edge id=":106_5" function="internal">
        <lane id=":106_5_0" index="0" speed="2.78" length="4.67" shape="5061.28,3320.49 5060.45,3321.68 5059.65,3322.06 5058.85,3321.65 5058.08,3320.43"/>
    </edge>
    <edge id=":106_6" function="internal">
        <lane id=":106_6_0" index="0" speed="2.78" length="8.96" shape="5052.43,3325.93 5054.86,3325.60 5056.61,3324.57 5057.68,3322.85 5058.08,3320.43"/>
    </edge>
    <edge id=":106_7" function="internal">
        <lane id=":106_7_0" index="0" speed="2.78" length="14.19" shape="5052.43,3325.93 5066.62,3326.53"/>
    </edge>
    <edge id=":106_8" function="internal">
        <lane id=":106_8_0" index="0" speed="2.78" length="2.34" shape="5052.43,3325.93 5053.63,3326.73 5054.02,3327.54"/>
    </edge>
    <edge id=":106_11" function="internal">
        <lane id=":106_11_0" index="0" speed="2.78" length="2.34" shape="5054.02,3327.54 5053.62,3328.33 5052.41,3329.13"/>
    </edge>
    <edge id=":107_0" function="internal">
        <lane id=":107_0_0" index="0" speed="2.78" length="9.09" shape="5534.18,3595.84 5531.70,3596.19 5529.87,3597.21 5528.69,3598.90 5528.16,3601.27"/>
    </edge>
    <edge id=":107_1" function="internal">
        <lane id=":107_1_0" index="0" speed="2.78" length="14.04" shape="5534.18,3595.84 5530.38,3595.31 5527.64,3593.70 5525.96,3591.00 5525.34,3587.21"/>
    </edge>
    <edge id=":107_2" function="internal">
        <lane id=":107_2_0" index="0" speed="2.78" length="4.67" shape="5534.18,3595.84 5532.97,3595.04 5532.57,3594.25 5532.97,3593.44 5534.16,3592.64"/>
    </edge>
    <edge id=":107_3" function="internal">
        <lane id=":107_3_0" index="0" speed="2.78" length="8.93" shape="5528.54,3587.15 5528.93,3589.56 5530.00,3591.28 5531.74,3592.30 5534.16,3592.64"/>
    </edge>
    <edge id=":107_4" function="internal">
        <lane id=":107_4_0" index="0" speed="2.78" length="14.13" shape="5528.54,3587.15 5528.58,3590.76 5528.53,3594.21 5528.39,3597.66 5528.16,3601.27"/>
    </edge>
    <edge id=":107_5" function="internal">
        <lane id=":107_5_0" index="0" speed="2.78" length="2.34" shape="5528.54,3587.15 5527.76,3588.36 5526.97,3588.78"/>
    </edge>
    <edge id=":107_9" function="internal">
        <lane id=":107_9_0" index="0" speed="2.78" length="2.34" shape="5526.97,3588.78 5526.16,3588.40 5525.34,3587.21"/>
    </edge>
    <edge id=":107_6" function="internal">
        <lane id=":107_6_0" index="0" speed="2.78" length="13.83" shape="5524.97,3601.03 5525.20,3597.47 5525.33,3594.12 5525.38,3590.78 5525.34,3587.21"/>
    </edge>
    <edge id=":107_7" function="internal">
        <lane id=":107_7_0" index="0" speed="2.78" length="5.66" shape="5524.97,3601.03 5525.78,3597.37 5526.86,3595.80"/>
    </edge>
    <edge id=":107_8" function="internal">
        <lane id=":107_8_0" index="0" speed="2.78" length="2.34" shape="5524.97,3601.03 5525.86,3599.89 5526.68,3599.55"/>
    </edge>
    <edge id=":107_10" function="internal">
        <lane id=":107_10_0" index="0" speed="2.78" length="8.30" shape="5526.86,3595.80 5527.58,3594.75 5530.38,3593.18 5534.16,3592.64"/>
    </edge>
    <edge id=":107_11" function="internal">
        <lane id=":107_11_0" index="0" speed="2.78" length="2.34" shape="5526.68,3599.55 5527.45,3600.01 5528.16,3601.27"/>
    </edge>
    <edge id=":108_0" function="internal">
        <lane id=":108_0_0" index="0" speed="2.78" length="9.03" shape="5791.92,3056.84 5789.45,3057.07 5787.66,3058.04 5786.56,3059.75 5786.13,3062.19"/>
    </edge>
    <edge id=":108_1" function="internal">
        <lane id=":108_1_0" index="0" speed="2.78" length="14.07" shape="5791.92,3056.84 5788.32,3056.59 5784.92,3056.18 5781.54,3055.56 5778.04,3054.71"/>
    </edge>
    <edge id=":108_2" function="internal">
        <lane id=":108_2_0" index="0" speed="2.78" length="2.34" shape="5791.92,3056.84 5790.76,3055.98 5790.40,3055.16"/>
    </edge>
    <edge id=":108_9" function="internal">
        <lane id=":108_9_0" index="0" speed="2.78" length="2.34" shape="5790.40,3055.16 5790.84,3054.38 5792.08,3053.64"/>
    </edge>
    <edge id=":108_3" function="internal">
        <lane id=":108_3_0" index="0" speed="2.78" length="13.37" shape="5778.89,3051.62 5782.28,3052.46 5785.42,3053.04 5788.59,3053.41 5792.08,3053.64"/>
    </edge>
    <edge id=":108_4" function="internal">
        <lane id=":108_4_0" index="0" speed="2.78" length="5.32" shape="5778.89,3051.62 5782.15,3053.05 5783.41,3054.28"/>
    </edge>
    <edge id=":108_5" function="internal">
        <lane id=":108_5_0" index="0" speed="2.78" length="2.34" shape="5778.89,3051.62 5779.84,3052.71 5780.01,3053.59"/>
    </edge>
    <edge id=":108_10" function="internal">
        <lane id=":108_10_0" index="0" speed="2.78" length="8.65" shape="5783.41,3054.28 5784.45,3055.29 5785.77,3058.34 5786.13,3062.19"/>
    </edge>
    <edge id=":108_11" function="internal">
        <lane id=":108_11_0" index="0" speed="2.78" length="2.34" shape="5780.01,3053.59 5779.41,3054.25 5778.04,3054.71"/>
    </edge>
    <edge id=":108_6" function="internal">
        <lane id=":108_6_0" index="0" speed="2.78" length="9.65" shape="5782.93,3062.10 5782.69,3059.39 5781.80,3057.25 5780.25,3055.69 5778.04,3054.71"/>
    </edge>
    <edge id=":108_7" function="internal">
        <lane id=":108_7_0" index="0" speed="2.78" length="14.26" shape="5782.93,3062.10 5783.60,3058.24 5785.35,3055.54 5788.18,3054.01 5792.08,3053.64"/>
    </edge>
    <edge id=":108_8" function="internal">
        <lane id=":108_8_0" index="0" speed="2.78" length="4.67" shape="5782.93,3062.10 5783.77,3060.92 5784.58,3060.55 5785.37,3060.97 5786.13,3062.19"/>
    </edge>
    <edge id=":109_0" function="internal">
        <lane id=":109_0_0" index="0" speed="2.78" length="0.10" shape="5959.47,3343.21 5959.47,3343.21"/>
    </edge>
    <edge id=":109_1" function="internal">
        <lane id=":109_1_0" index="0" speed="2.78" length="0.10" shape="5959.55,3340.01 5959.55,3340.01"/>
    </edge>
    <edge id=":11_0" function="internal">
        <lane id=":11_0_0" index="0" speed="2.78" length="1.18" shape="5759.25,6608.45 5758.90,6608.45 5758.66,6608.43 5758.42,6608.39 5758.08,6608.30"/>
    </edge>
    <edge id=":11_1" function="internal">
        <lane id=":11_1_0" index="0" speed="2.78" length="0.39" shape="5758.87,6605.20 5758.99,6605.23 5759.07,6605.24 5759.15,6605.25 5759.26,6605.25"/>
    </edge>
    <edge id=":110_0" function="internal">
        <lane id=":110_0_0" index="0" speed="2.78" length="9.03" shape="3314.56,5531.18 3312.10,5531.44 3310.32,5532.42 3309.23,5534.14 3308.84,5536.60"/>
    </edge>
    <edge id=":110_1" function="internal">
        <lane id=":110_1_0" index="0" speed="2.78" length="14.40" shape="3314.56,5531.18 3300.17,5530.63"/>
    </edge>
    <edge id=":110_2" function="internal">
        <lane id=":110_2_0" index="0" speed="2.78" length="2.34" shape="3314.56,5531.18 3313.40,5530.33 3313.03,5529.52"/>
    </edge>
    <edge id=":110_9" function="internal">